xflr5 v6.47

 Calculated polar for: Wing2

 1 1 Reynolds number fixed          Mach number fixed         

 xtrf =   1.000 (top)        1.000 (bottom)
 Mach =   0.000     Re =     1.000 e 6     Ncrit =   9.000

  alpha     CL        CD       CDp       Cm    Top Xtr Bot Xtr   Cpmin    Chinge    XCp    
 ------- -------- --------- --------- -------- ------- ------- -------- --------- ---------
 -24.600  -0.8510   0.34998   0.34879   0.1516  1.0000  0.0034  -1.5905   0.0000   0.4088
 -24.500  -0.8488   0.34817   0.34697   0.1508  1.0000  0.0034  -1.5599   0.0000   0.4087
 -24.400  -0.8467   0.34640   0.34520   0.1501  1.0000  0.0034  -1.5345   0.0000   0.4084
 -24.300  -0.8445   0.34463   0.34342   0.1493  1.0000  0.0034  -1.5121   0.0000   0.4081
 -24.200  -0.8423   0.34286   0.34166   0.1485  1.0000  0.0035  -1.4919   0.0000   0.4078
 -24.100  -0.8401   0.34109   0.33988   0.1476  1.0000  0.0035  -1.4734   0.0000   0.4075
 -24.000  -0.8379   0.33931   0.33810   0.1468  1.0000  0.0035  -1.4566   0.0000   0.4071
 -23.900  -0.8357   0.33752   0.33631   0.1460  1.0000  0.0035  -1.4412   0.0000   0.4068
 -23.800  -0.8335   0.33569   0.33447   0.1451  1.0000  0.0036  -1.4271   0.0000   0.4064
 -23.700  -0.8312   0.33389   0.33267   0.1443  1.0000  0.0036  -1.4144   0.0000   0.4060
 -23.600  -0.8289   0.33207   0.33085   0.1434  1.0000  0.0036  -1.4030   0.0000   0.4056
 -23.500  -0.8266   0.33026   0.32904   0.1426  1.0000  0.0036  -1.3926   0.0000   0.4052
 -23.400  -0.8243   0.32842   0.32720   0.1417  1.0000  0.0037  -1.3833   0.0000   0.4048
 -23.300  -0.8220   0.32657   0.32535   0.1409  1.0000  0.0037  -1.3749   0.0000   0.4044
 -23.200  -0.8196   0.32472   0.32349   0.1400  1.0000  0.0037  -1.3672   0.0000   0.4040
 -23.100  -0.8173   0.32287   0.32163   0.1391  1.0000  0.0038  -1.3600   0.0000   0.4036
 -23.000  -0.8149   0.32101   0.31977   0.1382  1.0000  0.0038  -1.3532   0.0000   0.4032
 -22.900  -0.8125   0.31915   0.31791   0.1374  1.0000  0.0038  -1.3468   0.0000   0.4027
 -22.800  -0.8101   0.31729   0.31605   0.1365  1.0000  0.0039  -1.3407   0.0000   0.4023
 -22.700  -0.8076   0.31544   0.31419   0.1356  1.0000  0.0039  -1.3349   0.0000   0.4018
 -22.600  -0.8052   0.31358   0.31233   0.1347  1.0000  0.0039  -1.3295   0.0000   0.4014
 -22.500  -0.8027   0.31172   0.31047   0.1338  1.0000  0.0040  -1.3244   0.0000   0.4009
 -22.400  -0.8002   0.30986   0.30861   0.1329  1.0000  0.0040  -1.3196   0.0000   0.4005
 -22.300  -0.7977   0.30800   0.30674   0.1320  1.0000  0.0040  -1.3152   0.0000   0.4000
 -22.200  -0.7952   0.30614   0.30488   0.1311  1.0000  0.0041  -1.3111   0.0000   0.3995
 -22.100  -0.7927   0.30428   0.30302   0.1302  1.0000  0.0041  -1.3074   0.0000   0.3990
 -22.000  -0.7901   0.30242   0.30116   0.1293  1.0000  0.0042  -1.3041   0.0000   0.3985
 -21.900  -0.7875   0.30056   0.29929   0.1283  1.0000  0.0042  -1.3013   0.0000   0.3980
 -21.800  -0.7850   0.29869   0.29742   0.1274  1.0000  0.0043  -1.3002   0.0000   0.3975
 -21.700  -0.7824   0.29682   0.29555   0.1265  1.0000  0.0044  -1.3074   0.0000   0.3970
 -21.600  -0.7797   0.29495   0.29367   0.1256  1.0000  0.0044  -1.3160   0.0000   0.3964
 -21.500  -0.7771   0.29306   0.29178   0.1246  1.0000  0.0045  -1.3267   0.0000   0.3959
 -21.400  -0.7745   0.29114   0.28986   0.1237  1.0000  0.0046  -1.3407   0.0000   0.3953
 -21.300  -0.7718   0.28920   0.28792   0.1227  1.0000  0.0047  -1.3607   0.0000   0.3947
 -21.200  -0.7691   0.28717   0.28589   0.1217  1.0000  0.0047  -1.3906   0.0000   0.3941
 -21.100  -0.7664   0.28508   0.28379   0.1207  1.0000  0.0048  -1.4288   0.0000   0.3934
 -21.000  -0.7639   0.28299   0.28170   0.1197  1.0000  0.0048  -1.4679   0.0000   0.3926
 -20.900  -0.7613   0.28093   0.27963   0.1186  1.0000  0.0048  -1.5049   0.0000   0.3918
 -20.800  -0.7588   0.27889   0.27759   0.1175  1.0000  0.0049  -1.5404   0.0000   0.3910
 -20.700  -0.7563   0.27686   0.27557   0.1165  1.0000  0.0049  -1.5750   0.0000   0.3902
 -20.600  -0.7538   0.27484   0.27354   0.1154  1.0000  0.0049  -1.6093   0.0000   0.3894
 -20.500  -0.7513   0.27283   0.27153   0.1143  1.0000  0.0049  -1.6440   0.0000   0.3885
 -20.400  -0.7488   0.27082   0.26951   0.1132  1.0000  0.0049  -1.6793   0.0000   0.3876
 -20.300  -0.7463   0.26885   0.26754   0.1121  1.0000  0.0049  -1.7102   0.0000   0.3867
 -20.200  -0.7437   0.26690   0.26559   0.1110  1.0000  0.0049  -1.7406   0.0000   0.3858
 -20.100  -0.7411   0.26498   0.26367   0.1099  1.0000  0.0049  -1.7674   0.0000   0.3850
 -20.000  -0.7384   0.26310   0.26179   0.1089  1.0000  0.0049  -1.7908   0.0000   0.3842
 -19.900  -0.7357   0.26121   0.25990   0.1078  1.0000  0.0049  -1.8149   0.0000   0.3834
 -19.800  -0.7330   0.25913   0.25781   0.1068  1.0000  0.0050  -1.8325   0.0000   0.3827
 -19.700  -0.7297   0.25773   0.25641   0.1060  1.0000  0.0050  -1.7933   0.0000   0.3824
 -19.600  -0.7265   0.25630   0.25498   0.1051  1.0000  0.0051  -1.7626   0.0000   0.3819
 -19.500  -0.7233   0.25486   0.25353   0.1042  1.0000  0.0051  -1.7369   0.0000   0.3814
 -19.400  -0.7202   0.25340   0.25207   0.1032  1.0000  0.0051  -1.7149   0.0000   0.3808
 -19.300  -0.7171   0.25189   0.25055   0.1022  1.0000  0.0052  -1.6961   0.0000   0.3802
 -19.200  -0.7140   0.25039   0.24905   0.1013  1.0000  0.0052  -1.6803   0.0000   0.3796
 -19.100  -0.7110   0.24888   0.24754   0.1003  1.0000  0.0052  -1.6673   0.0000   0.3789
 -19.000  -0.7079   0.24735   0.24601   0.0992  1.0000  0.0053  -1.6571   0.0000   0.3782
 -18.900  -0.7048   0.24581   0.24446   0.0982  1.0000  0.0054  -1.6495   0.0000   0.3775
 -18.800  -0.7017   0.24424   0.24289   0.0972  1.0000  0.0054  -1.6445   0.0000   0.3767
 -18.700  -0.6986   0.24266   0.24131   0.0961  1.0000  0.0055  -1.6421   0.0000   0.3759
 -18.600  -0.6956   0.24107   0.23971   0.0950  1.0000  0.0056  -1.6424   0.0000   0.3751
 -18.500  -0.6925   0.23945   0.23809   0.0940  1.0000  0.0057  -1.6456   0.0000   0.3742
 -18.400  -0.6894   0.23782   0.23646   0.0929  1.0000  0.0058  -1.6519   0.0000   0.3733
 -18.300  -0.6864   0.23615   0.23479   0.0917  1.0000  0.0059  -1.6619   0.0000   0.3723
 -18.200  -0.6834   0.23447   0.23310   0.0906  1.0000  0.0061  -1.6770   0.0000   0.3713
 -18.100  -0.6804   0.23271   0.23133   0.0894  1.0000  0.0063  -1.7025   0.0000   0.3702
 -18.000  -0.6700   0.18953   0.18778   0.0437  1.0000  0.0069  -2.7655   0.0000   0.3002
 -17.900  -0.6673   0.18872   0.18697   0.0434  1.0000  0.0070  -2.7224   0.0000   0.3001
 -17.800  -0.6644   0.18796   0.18621   0.0431  1.0000  0.0070  -2.6761   0.0000   0.3001
 -17.700  -0.6615   0.18718   0.18543   0.0427  1.0000  0.0071  -2.6328   0.0000   0.3000
 -17.600  -0.6588   0.18636   0.18462   0.0424  1.0000  0.0071  -2.5948   0.0000   0.2999
 -17.500  -0.6560   0.18551   0.18377   0.0420  1.0000  0.0072  -2.5613   0.0000   0.2997
 -17.400  -0.6534   0.18463   0.18288   0.0416  1.0000  0.0072  -2.5319   0.0000   0.2995
 -17.300  -0.6508   0.18371   0.18197   0.0411  1.0000  0.0073  -2.5063   0.0000   0.2992
 -17.200  -0.6482   0.18276   0.18102   0.0407  1.0000  0.0073  -2.4845   0.0000   0.2989
 -17.100  -0.6456   0.18177   0.18003   0.0403  1.0000  0.0074  -2.4664   0.0000   0.2985
 -17.000  -0.6432   0.18076   0.17902   0.0398  1.0000  0.0075  -2.4517   0.0000   0.2982
 -16.900  -0.6407   0.17971   0.17797   0.0393  1.0000  0.0076  -2.4405   0.0000   0.2977
 -16.800  -0.6383   0.17862   0.17689   0.0388  1.0000  0.0077  -2.4329   0.0000   0.2973
 -16.700  -0.6359   0.17750   0.17577   0.0383  1.0000  0.0078  -2.4289   0.0000   0.2968
 -16.600  -0.6336   0.17635   0.17463   0.0378  1.0000  0.0079  -2.4273   0.0000   0.2963
 -16.300  -0.7605   0.13073   0.12898   0.0172  1.0000  0.0066  -7.7012   0.0000   0.2555
 -16.200  -0.8163   0.11654   0.11466   0.0090  1.0000  0.0064  -9.0707   0.0000   0.2432
 -16.100  -0.8373   0.11044   0.10849   0.0054  1.0000  0.0063  -9.5330   0.0000   0.2385
 -16.000  -0.8559   0.10498   0.10298   0.0021  1.0000  0.0062  -9.9173   0.0000   0.2346
 -15.900  -0.8738   0.09980   0.09774  -0.0010  1.0000  0.0061  -10.2678   0.0000   0.2310
 -15.800  -0.8904   0.09496   0.09285  -0.0038  1.0000  0.0061  -10.5760   0.0000   0.2279
 -15.700  -0.9066   0.09032   0.08815  -0.0066  1.0000  0.0060  -10.8618   0.0000   0.2250
 -15.600  -0.9231   0.08564   0.08342  -0.0094  1.0000  0.0059  -11.1463   0.0000   0.2222
 -15.500  -0.9395   0.08105   0.07876  -0.0121  1.0000  0.0059  -11.4180   0.0000   0.2195
 -15.400  -0.9556   0.07656   0.07420  -0.0148  1.0000  0.0058  -11.6759   0.0000   0.2170
 -15.300  -0.9712   0.07225   0.06982  -0.0174  1.0000  0.0058  -11.9154   0.0000   0.2147
 -15.200  -0.9859   0.06818   0.06568  -0.0199  1.0000  0.0057  -12.1305   0.0000   0.2126
 -15.100  -0.9996   0.06438   0.06181  -0.0223  1.0000  0.0057  -12.3182   0.0000   0.2107
 -15.000  -1.0121   0.06088   0.05824  -0.0244  1.0000  0.0057  -12.4789   0.0000   0.2090
 -14.900  -1.0236   0.05768   0.05497  -0.0264  1.0000  0.0057  -12.6137   0.0000   0.2075
 -14.800  -1.0341   0.05474   0.05196  -0.0282  1.0000  0.0056  -12.7246   0.0000   0.2063
 -14.700  -1.0436   0.05205   0.04921  -0.0297  1.0000  0.0056  -12.8137   0.0000   0.2052
 -14.600  -1.0522   0.04960   0.04670  -0.0310  1.0000  0.0056  -12.8838   0.0000   0.2044
 -14.500  -1.0602   0.04737   0.04440  -0.0322  1.0000  0.0056  -12.9377   0.0000   0.2038
 -14.400  -1.0677   0.04532   0.04230  -0.0331  1.0000  0.0056  -12.9781   0.0000   0.2033
 -14.300  -1.0748   0.04347   0.04040  -0.0338  1.0000  0.0056  -13.0061   0.0000   0.2030
 -14.200  -1.0814   0.04180   0.03867  -0.0343  1.0000  0.0056  -13.0227   0.0000   0.2030
 -14.100  -1.0875   0.04029   0.03711  -0.0345  1.0000  0.0057  -13.0286   0.0000   0.2032
 -14.000  -1.0933   0.03893   0.03570  -0.0345  1.0000  0.0057  -13.0246   0.0000   0.2035
 -13.900  -1.0986   0.03770   0.03442  -0.0344  1.0000  0.0057  -13.0123   0.0000   0.2040
 -13.800  -1.1036   0.03658   0.03325  -0.0341  1.0000  0.0057  -12.9917   0.0000   0.2046
 -13.700  -1.1083   0.03555   0.03218  -0.0336  1.0000  0.0057  -12.9645   0.0000   0.2053
 -13.600  -1.1126   0.03462   0.03120  -0.0330  1.0000  0.0058  -12.9310   0.0000   0.2062
 -13.500  -1.1166   0.03376   0.03029  -0.0322  1.0000  0.0058  -12.8919   0.0000   0.2071
 -13.400  -1.1203   0.03296   0.02945  -0.0314  1.0000  0.0058  -12.8479   0.0000   0.2081
 -13.300  -1.1237   0.03222   0.02866  -0.0304  1.0000  0.0058  -12.7986   0.0000   0.2092
 -13.200  -1.1268   0.03153   0.02793  -0.0294  1.0000  0.0059  -12.7441   0.0000   0.2104
 -13.100  -1.1297   0.03089   0.02725  -0.0282  1.0000  0.0059  -12.6876   0.0000   0.2116
 -13.000  -1.1322   0.03029   0.02661  -0.0270  1.0000  0.0059  -12.6253   0.0000   0.2128
 -12.900  -1.1347   0.02973   0.02600  -0.0257  1.0000  0.0060  -12.5620   0.0000   0.2142
 -12.800  -1.1368   0.02920   0.02543  -0.0244  1.0000  0.0060  -12.4932   0.0000   0.2156
 -12.700  -1.1390   0.02870   0.02488  -0.0229  1.0000  0.0060  -12.4255   0.0000   0.2170
 -12.600  -1.1406   0.02822   0.02436  -0.0215  1.0000  0.0061  -12.3510   0.0000   0.2185
 -12.500  -1.1424   0.02776   0.02386  -0.0199  1.0000  0.0061  -12.2780   0.0000   0.2200
 -12.400  -1.1440   0.02733   0.02339  -0.0183  1.0000  0.0062  -12.2026   0.0000   0.2216
 -12.300  -1.1448   0.02692   0.02293  -0.0167  1.0000  0.0062  -12.1188   0.0000   0.2231
 -12.200  -1.1458   0.02653   0.02250  -0.0150  1.0000  0.0062  -12.0369   0.0000   0.2247
 -12.100  -1.1472   0.02617   0.02210  -0.0131  1.0000  0.0063  -11.9592   0.0000   0.2265
 -12.000  -1.1488   0.02583   0.02172  -0.0112  1.0000  0.0063  -11.8812   0.0000   0.2283
 -11.900  -1.1481   0.02547   0.02131  -0.0097  1.0000  0.0064  -11.7831   0.0000   0.2298
 -11.800  -1.1451   0.02510   0.02089  -0.0086  1.0000  0.0064  -11.6630   0.0000   0.2308
 -11.700  -1.1414   0.02474   0.02049  -0.0075  1.0000  0.0065  -11.5357   0.0000   0.2318
 -11.600  -1.1371   0.02439   0.02010  -0.0066  1.0000  0.0066  -11.4021   0.0000   0.2328
 -11.500  -1.1322   0.02407   0.01974  -0.0057  1.0000  0.0066  -11.2625   0.0000   0.2337
 -11.400  -1.1267   0.02377   0.01940  -0.0049  1.0000  0.0067  -11.1171   0.0000   0.2345
 -11.300  -1.1207   0.02349   0.01908  -0.0042  1.0000  0.0067  -10.9664   0.0000   0.2352
 -11.200  -1.1142   0.02324   0.01880  -0.0035  1.0000  0.0068  -10.8106   0.0000   0.2359
 -11.100  -1.1072   0.02302   0.01854  -0.0029  1.0000  0.0068  -10.6505   0.0000   0.2366
 -11.000  -1.1086   0.02205   0.01747  -0.0012  1.0000  0.0070  -10.6110   0.0000   0.2382
 -10.900  -1.1068   0.02134   0.01670   0.0001  1.0000  0.0071  -10.5249   0.0000   0.2395
 -10.800  -1.1022   0.02085   0.01616   0.0010  1.0000  0.0072  -10.4004   0.0000   0.2404
 -10.700  -1.0961   0.02047   0.01575   0.0017  1.0000  0.0074  -10.2629   0.0000   0.2412
 -10.600  -1.0893   0.02015   0.01541   0.0023  1.0000  0.0075  -10.1194   0.0000   0.2419
 -10.500  -1.0820   0.01986   0.01509   0.0029  1.0000  0.0076  -9.9720   0.0000   0.2426
 -10.400  -1.0745   0.01958   0.01479   0.0034  1.0000  0.0077  -9.8241   0.0000   0.2432
 -10.300  -1.0668   0.01931   0.01448   0.0040  1.0000  0.0078  -9.6767   0.0000   0.2438
 -10.200  -1.0591   0.01903   0.01419   0.0045  1.0000  0.0079  -9.5297   0.0000   0.2445
 -10.100  -1.0512   0.01876   0.01389   0.0050  1.0000  0.0080  -9.3835   0.0000   0.2451
 -10.000  -1.0432   0.01849   0.01359   0.0055  1.0000  0.0081  -9.2383   0.0000   0.2458
  -9.900  -1.0351   0.01822   0.01329   0.0060  1.0000  0.0083  -9.0939   0.0000   0.2464
  -9.800  -1.0270   0.01795   0.01299   0.0065  1.0000  0.0084  -8.9502   0.0000   0.2470
  -9.700  -1.0187   0.01769   0.01270   0.0070  1.0000  0.0085  -8.8067   0.0000   0.2476
  -9.600  -1.0102   0.01744   0.01241   0.0074  1.0000  0.0087  -8.6630   0.0000   0.2483
  -9.500  -1.0016   0.01720   0.01214   0.0078  1.0000  0.0088  -8.5186   0.0000   0.2489
  -9.400  -0.9929   0.01697   0.01188   0.0083  1.0000  0.0089  -8.3728   0.0000   0.2495
  -9.300  -0.9839   0.01677   0.01164   0.0086  1.0000  0.0090  -8.2254   0.0000   0.2500
  -9.200  -0.9746   0.01658   0.01143   0.0090  1.0000  0.0091  -8.0762   0.0000   0.2506
  -9.100  -0.9683   0.01605   0.01085   0.0097  1.0000  0.0093  -7.9706   0.0000   0.2515
  -9.000  -0.9612   0.01561   0.01038   0.0104  1.0000  0.0096  -7.8516   0.0000   0.2524
  -8.900  -0.9527   0.01532   0.01007   0.0108  1.0000  0.0098  -7.7136   0.0000   0.2530
  -8.800  -0.9437   0.01510   0.00983   0.0112  1.0000  0.0100  -7.5684   0.0000   0.2536
  -8.700  -0.9344   0.01489   0.00961   0.0115  1.0000  0.0102  -7.4216   0.0000   0.2542
  -8.600  -0.9250   0.01470   0.00941   0.0119  1.0000  0.0104  -7.2754   0.0000   0.2548
  -8.500  -0.9155   0.01452   0.00921   0.0122  1.0000  0.0106  -7.1297   0.0000   0.2554
  -8.400  -0.9059   0.01434   0.00902   0.0125  1.0000  0.0109  -6.9850   0.0000   0.2560
  -8.300  -0.8962   0.01417   0.00883   0.0128  1.0000  0.0111  -6.8411   0.0000   0.2565
  -8.200  -0.8865   0.01401   0.00865   0.0130  1.0000  0.0114  -6.6976   0.0000   0.2571
  -8.100  -0.8765   0.01387   0.00849   0.0133  1.0000  0.0116  -6.5535   0.0000   0.2577
  -8.000  -0.8667   0.01372   0.00831   0.0136  1.0000  0.0118  -6.4128   0.0000   0.2583
  -7.900  -0.8589   0.01329   0.00785   0.0142  1.0000  0.0123  -6.3006   0.0000   0.2592
  -7.800  -0.8495   0.01306   0.00762   0.0145  1.0000  0.0127  -6.1662   0.0000   0.2598
  -7.700  -0.8397   0.01288   0.00744   0.0148  1.0000  0.0130  -6.0276   0.0000   0.2604
  -7.600  -0.8298   0.01272   0.00727   0.0150  1.0000  0.0134  -5.8898   0.0000   0.2611
  -7.500  -0.8199   0.01256   0.00710   0.0153  1.0000  0.0138  -5.7537   0.0000   0.2617
  -7.400  -0.8099   0.01241   0.00694   0.0155  1.0000  0.0141  -5.6190   0.0000   0.2623
  -7.300  -0.7998   0.01227   0.00678   0.0158  1.0000  0.0145  -5.4846   0.0000   0.2630
  -7.200  -0.7895   0.01216   0.00665   0.0160  1.0000  0.0148  -5.3497   0.0000   0.2636
  -7.100  -0.7805   0.01184   0.00631   0.0164  1.0000  0.0155  -5.2413   0.0000   0.2644
  -7.000  -0.7707   0.01165   0.00613   0.0167  1.0000  0.0161  -5.1225   0.0000   0.2652
  -6.900  -0.7606   0.01151   0.00598   0.0169  1.0000  0.0166  -5.0013   0.0000   0.2658
  -6.800  -0.7428   0.01163   0.00581   0.0157  0.8307  0.0174  -4.8378   0.0000   0.2648
  -6.700  -0.7347   0.01171   0.00569   0.0165  0.7776  0.0180  -4.7301   0.0000   0.2661
  -6.600  -0.7255   0.01162   0.00550   0.0169  0.7529  0.0187  -4.6208   0.0000   0.2671
  -6.400  -0.7058   0.01140   0.00519   0.0175  0.7245  0.0205  -4.3933   0.0000   0.2687
  -6.300  -0.6956   0.01133   0.00506   0.0177  0.7144  0.0214  -4.2782   0.0000   0.2695
  -6.200  -0.6851   0.01125   0.00495   0.0179  0.7060  0.0222  -4.1636   0.0000   0.2703
  -6.100  -0.6754   0.01108   0.00475   0.0182  0.6985  0.0236  -4.0565   0.0000   0.2712
  -6.000  -0.6650   0.01097   0.00462   0.0184  0.6920  0.0248  -3.9441   0.0000   0.2720
  -5.900  -0.6545   0.01089   0.00451   0.0186  0.6856  0.0260  -3.8320   0.0000   0.2728
  -5.700  -0.6339   0.01065   0.00424   0.0190  0.6748  0.0293  -3.6331   0.0000   0.2745
  -5.600  -0.6232   0.01058   0.00413   0.0192  0.6694  0.0310  -3.5324   0.0000   0.2753
  -5.500  -0.6130   0.01044   0.00400   0.0194  0.6644  0.0333  -3.4357   0.0000   0.2763
  -5.400  -0.6024   0.01035   0.00389   0.0195  0.6598  0.0356  -3.3370   0.0000   0.2772
  -5.300  -0.5919   0.01023   0.00378   0.0197  0.6551  0.0382  -3.2405   0.0000   0.2781
  -5.200  -0.5814   0.01014   0.00367   0.0199  0.6504  0.0411  -3.1440   0.0000   0.2791
  -5.100  -0.5708   0.01004   0.00356   0.0201  0.6461  0.0441  -3.0489   0.0000   0.2801
  -5.000  -0.5602   0.00994   0.00346   0.0202  0.6416  0.0475  -2.9535   0.0000   0.2811
  -4.900  -0.5496   0.00983   0.00336   0.0204  0.6372  0.0515  -2.8599   0.0000   0.2821
  -4.800  -0.5390   0.00975   0.00327   0.0205  0.6329  0.0554  -2.7665   0.0000   0.2832
  -4.700  -0.5283   0.00964   0.00318   0.0207  0.6286  0.0602  -2.6743   0.0000   0.2843
  -4.600  -0.5176   0.00955   0.00310   0.0208  0.6241  0.0648  -2.5828   0.0000   0.2854
  -4.500  -0.5069   0.00947   0.00302   0.0210  0.6197  0.0695  -2.4921   0.0000   0.2866
  -4.400  -0.4962   0.00937   0.00293   0.0211  0.6156  0.0748  -2.4041   0.0000   0.2879
  -4.300  -0.4854   0.00929   0.00286   0.0212  0.6109  0.0799  -2.3226   0.0000   0.2891
  -4.200  -0.4747   0.00921   0.00278   0.0213  0.6063  0.0855  -2.2423   0.0000   0.2904
  -4.100  -0.4639   0.00912   0.00270   0.0215  0.6020  0.0910  -2.1628   0.0000   0.2918
  -4.000  -0.4530   0.00905   0.00263   0.0216  0.5972  0.0965  -2.0835   0.0000   0.2932
  -3.900  -0.4423   0.00896   0.00255   0.0217  0.5925  0.1029  -2.0061   0.0000   0.2947
  -3.800  -0.4314   0.00888   0.00248   0.0218  0.5878  0.1092  -1.9291   0.0000   0.2963
  -3.700  -0.4206   0.00880   0.00242   0.0219  0.5826  0.1160  -1.8529   0.0000   0.2979
  -3.500  -0.3990   0.00863   0.00227   0.0222  0.5726  0.1319  -1.7165   0.0000   0.3014
  -3.400  -0.3882   0.00854   0.00221   0.0223  0.5672  0.1409  -1.6498   0.0000   0.3033
  -3.300  -0.3775   0.00846   0.00214   0.0224  0.5621  0.1513  -1.5840   0.0000   0.3053
  -3.200  -0.3667   0.00836   0.00207   0.0225  0.5564  0.1631  -1.5191   0.0000   0.3074
  -3.000  -0.3455   0.00814   0.00193   0.0228  0.5455  0.1922  -1.4015   0.0000   0.3120
  -2.900  -0.3349   0.00803   0.00186   0.0229  0.5397  0.2096  -1.3448   0.0000   0.3145
  -2.800  -0.3244   0.00790   0.00180   0.0230  0.5342  0.2289  -1.2890   0.0000   0.3172
  -2.700  -0.3139   0.00778   0.00173   0.0232  0.5282  0.2509  -1.2370   0.0000   0.3201
  -2.600  -0.3034   0.00765   0.00167   0.0233  0.5226  0.2740  -1.1874   0.0000   0.3231
  -2.500  -0.2929   0.00752   0.00162   0.0234  0.5167  0.2983  -1.1381   0.0000   0.3264
  -2.400  -0.2824   0.00741   0.00157   0.0236  0.5107  0.3218  -1.0912   0.0000   0.3299
  -2.300  -0.2718   0.00730   0.00152   0.0237  0.5048  0.3442  -1.0469   0.0000   0.3337
  -2.100  -0.2504   0.00713   0.00144   0.0239  0.4928  0.3834  -0.9619   0.0000   0.3422
  -2.000  -0.2396   0.00706   0.00141   0.0240  0.4866  0.4015  -0.9221   0.0000   0.3470
  -1.900  -0.2287   0.00700   0.00138   0.0241  0.4807  0.4179  -0.8840   0.0000   0.3523
  -1.800  -0.2178   0.00694   0.00135   0.0242  0.4743  0.4339  -0.8478   0.0000   0.3581
  -1.700  -0.2070   0.00690   0.00132   0.0243  0.4682  0.4488  -0.8129   0.0000   0.3645
  -1.600  -0.1960   0.00685   0.00130   0.0244  0.4621  0.4632  -0.7800   0.0000   0.3716
  -1.500  -0.1851   0.00681   0.00127   0.0245  0.4559  0.4773  -0.7482   0.0000   0.3795
  -1.400  -0.1741   0.00676   0.00125   0.0246  0.4501  0.4908  -0.7183   0.0000   0.3884
  -1.300  -0.1631   0.00672   0.00123   0.0247  0.4437  0.5044  -0.6893   0.0000   0.3986
  -1.200  -0.1522   0.00669   0.00120   0.0248  0.4379  0.5177  -0.6620   0.0000   0.4102
  -1.100  -0.1412   0.00665   0.00118   0.0249  0.4315  0.5308  -0.6354   0.0000   0.4236
  -1.000  -0.1303   0.00661   0.00116   0.0249  0.4257  0.5444  -0.6105   0.0000   0.4392
  -0.900  -0.1193   0.00657   0.00115   0.0250  0.4197  0.5583  -0.5861   0.0000   0.4577
  -0.800  -0.1085   0.00653   0.00113   0.0251  0.4140  0.5727  -0.5699   0.0000   0.4799
  -0.600  -0.0870   0.00641   0.00109   0.0254  0.4024  0.6069  -0.5979   0.0000   0.5407
  -0.500  -0.0764   0.00634   0.00108   0.0256  0.3970  0.6293  -0.6118   0.0000   0.5837
  -0.400  -0.0660   0.00626   0.00107   0.0258  0.3912  0.6547  -0.6257   0.0000   0.6400
  -0.300  -0.0557   0.00619   0.00106   0.0260  0.3858  0.6820  -0.6395   0.0000   0.7169
  -0.200  -0.0453   0.00611   0.00106   0.0262  0.3807  0.7083  -0.6536   0.0000   0.8300
  -0.100  -0.0349   0.00606   0.00106   0.0264  0.3754  0.7317  -0.6685   0.0000   1.0114
   0.000  -0.0244   0.00602   0.00107   0.0267  0.3706  0.7527  -0.6834   0.0000   1.3491
   0.100  -0.0139   0.00598   0.00108   0.0269  0.3654  0.7714  -0.6985   0.0000   2.1979
   0.200  -0.0034   0.00596   0.00109   0.0271  0.3602  0.7877  -0.7136   0.0000   8.3035
   0.300   0.0074   0.00595   0.00110   0.0273  0.3554  0.8031  -0.7290   0.0000  -3.4701
   0.400   0.0178   0.00592   0.00112   0.0276  0.3504  0.8183  -0.7441   0.0000  -1.3200
   0.600   0.0390   0.00590   0.00115   0.0281  0.3413  0.8454  -0.7748   0.0000  -0.4821
   0.700   0.0498   0.00591   0.00116   0.0283  0.3368  0.8574  -0.7904   0.0000  -0.3278
   0.800   0.0602   0.00592   0.00119   0.0286  0.3324  0.8690  -0.8058   0.0000  -0.2335
   0.900   0.0708   0.00592   0.00121   0.0288  0.3285  0.8801  -0.8222   0.0000  -0.1654
   1.000   0.0816   0.00594   0.00123   0.0290  0.3240  0.8887  -0.8389   0.0000  -0.1130
   1.100   0.0923   0.00597   0.00125   0.0292  0.3196  0.8973  -0.8556   0.0000  -0.0737
   1.200   0.1032   0.00598   0.00128   0.0294  0.3157  0.9057  -0.8725   0.0000  -0.0423
   1.300   0.1141   0.00601   0.00130   0.0296  0.3115  0.9130  -0.8894   0.0000  -0.0163
   1.400   0.1250   0.00605   0.00132   0.0298  0.3073  0.9191  -0.9064   0.0000   0.0051
   1.500   0.1357   0.00608   0.00134   0.0300  0.3037  0.9237  -0.9233   0.0000   0.0228
   1.600   0.1476   0.00611   0.00137   0.0299  0.3001  0.9295  -0.9412   0.0000   0.0409
   1.700   0.1597   0.00615   0.00140   0.0298  0.2961  0.9347  -0.9595   0.0000   0.0571
   1.800   0.1720   0.00620   0.00143   0.0297  0.2923  0.9392  -0.9780   0.0000   0.0714
   1.900   0.1844   0.00624   0.00146   0.0295  0.2890  0.9433  -0.9966   0.0000   0.0839
   2.000   0.1966   0.00628   0.00149   0.0294  0.2852  0.9471  -1.0151   0.0000   0.0945
   2.100   0.2085   0.00634   0.00152   0.0293  0.2814  0.9506  -1.0334   0.0000   0.1035
   2.200   0.2198   0.00639   0.00155   0.0294  0.2779  0.9540  -1.0522   0.0000   0.1104
   2.300   0.2308   0.00643   0.00158   0.0295  0.2747  0.9569  -1.0709   0.0000   0.1163
   2.400   0.2415   0.00648   0.00162   0.0297  0.2712  0.9594  -1.0894   0.0000   0.1211
   2.500   0.2530   0.00653   0.00165   0.0297  0.2677  0.9616  -1.1086   0.0000   0.1268
   2.600   0.2673   0.00657   0.00167   0.0291  0.2644  0.9637  -1.1306   0.0000   0.1355
   2.700   0.2817   0.00661   0.00169   0.0284  0.2612  0.9656  -1.1528   0.0000   0.1435
   2.800   0.2961   0.00665   0.00172   0.0277  0.2578  0.9672  -1.1750   0.0000   0.1506
   2.900   0.3105   0.00671   0.00175   0.0271  0.2543  0.9687  -1.1973   0.0000   0.1570
   3.000   0.3249   0.00676   0.00178   0.0264  0.2514  0.9700  -1.2197   0.0000   0.1629
   3.100   0.3393   0.00679   0.00181   0.0258  0.2484  0.9713  -1.2422   0.0000   0.1683
   3.200   0.3535   0.00684   0.00184   0.0252  0.2452  0.9724  -1.2647   0.0000   0.1731
   3.300   0.3677   0.00691   0.00187   0.0245  0.2419  0.9736  -1.2872   0.0000   0.1776
   3.400   0.3819   0.00695   0.00191   0.0239  0.2390  0.9748  -1.3098   0.0000   0.1816
   3.500   0.3959   0.00699   0.00194   0.0234  0.2361  0.9761  -1.3324   0.0000   0.1853
   3.600   0.4099   0.00704   0.00198   0.0228  0.2330  0.9773  -1.3549   0.0000   0.1886
   3.700   0.4237   0.00710   0.00201   0.0222  0.2299  0.9786  -1.3775   0.0000   0.1917
   3.800   0.4375   0.00716   0.00205   0.0217  0.2271  0.9799  -1.4000   0.0000   0.1946
   3.900   0.4513   0.00720   0.00209   0.0212  0.2248  0.9812  -1.4226   0.0000   0.1973
   4.000   0.4651   0.00724   0.00212   0.0206  0.2222  0.9825  -1.4458   0.0000   0.1998
   4.100   0.4790   0.00730   0.00216   0.0201  0.2195  0.9839  -1.4700   0.0000   0.2021
   4.200   0.4927   0.00737   0.00221   0.0195  0.2167  0.9852  -1.4941   0.0000   0.2044
   4.300   0.5066   0.00742   0.00226   0.0190  0.2144  0.9865  -1.5184   0.0000   0.2065
   4.400   0.5205   0.00746   0.00230   0.0184  0.2123  0.9877  -1.5428   0.0000   0.2085
   4.500   0.5343   0.00751   0.00234   0.0179  0.2100  0.9890  -1.5674   0.0000   0.2104
   4.600   0.5480   0.00756   0.00238   0.0174  0.2076  0.9901  -1.5918   0.0000   0.2121
   4.700   0.5615   0.00763   0.00244   0.0169  0.2051  0.9911  -1.6162   0.0000   0.2137
   4.800   0.5751   0.00770   0.00249   0.0164  0.2028  0.9921  -1.6405   0.0000   0.2152
   4.900   0.5887   0.00774   0.00254   0.0159  0.2011  0.9930  -1.6652   0.0000   0.2167
   5.000   0.6023   0.00778   0.00259   0.0154  0.1991  0.9939  -1.6899   0.0000   0.2180
   5.100   0.6159   0.00784   0.00264   0.0149  0.1970  0.9947  -1.7146   0.0000   0.2193
   5.200   0.6293   0.00791   0.00269   0.0144  0.1947  0.9954  -1.7394   0.0000   0.2205
   5.300   0.6427   0.00799   0.00276   0.0139  0.1923  0.9961  -1.7640   0.0000   0.2217
   5.400   0.6562   0.00804   0.00281   0.0134  0.1905  0.9967  -1.7889   0.0000   0.2228
   5.500   0.6697   0.00809   0.00286   0.0130  0.1889  0.9973  -1.8140   0.0000   0.2238
   5.600   0.6832   0.00814   0.00292   0.0125  0.1871  0.9978  -1.8390   0.0000   0.2248
   5.700   0.6966   0.00820   0.00298   0.0120  0.1853  0.9983  -1.8642   0.0000   0.2258
   5.800   0.7101   0.00827   0.00304   0.0115  0.1834  0.9987  -1.8894   0.0000   0.2267
   5.900   0.7237   0.00835   0.00311   0.0110  0.1815  0.9992  -1.9154   0.0000   0.2277
   6.000   0.7373   0.00844   0.00320   0.0105  0.1795  0.9995  -1.9421   0.0000   0.2286
   6.100   0.7510   0.00848   0.00325   0.0100  0.1784  0.9999  -1.9695   0.0000   0.2294
   6.200   0.7618   0.00852   0.00331   0.0100  0.1769  1.0000  -1.9933   0.0000   0.2294
   6.300   0.7707   0.00856   0.00336   0.0105  0.1750  1.0000  -2.0783   0.0000   0.2289
   6.400   0.7795   0.00862   0.00340   0.0109  0.1725  1.0000  -2.1649   0.0000   0.2284
   6.500   0.7882   0.00871   0.00347   0.0113  0.1694  1.0000  -2.2518   0.0000   0.2279
   6.600   0.7972   0.00876   0.00352   0.0118  0.1670  1.0000  -2.3413   0.0000   0.2275
   6.700   0.8063   0.00880   0.00357   0.0122  0.1645  1.0000  -2.4324   0.0000   0.2270
   6.800   0.8153   0.00887   0.00362   0.0126  0.1619  1.0000  -2.5239   0.0000   0.2266
   6.900   0.8243   0.00895   0.00369   0.0130  0.1593  1.0000  -2.6159   0.0000   0.2262
   7.000   0.8332   0.00905   0.00378   0.0134  0.1569  1.0000  -2.7085   0.0000   0.2257
   7.100   0.8425   0.00909   0.00383   0.0138  0.1554  1.0000  -2.8044   0.0000   0.2254
   7.200   0.8518   0.00914   0.00390   0.0141  0.1532  1.0000  -2.9010   0.0000   0.2250
   7.300   0.8610   0.00922   0.00397   0.0145  0.1506  1.0000  -2.9978   0.0000   0.2247
   7.400   0.8702   0.00932   0.00405   0.0148  0.1480  1.0000  -3.0948   0.0000   0.2243
   7.500   0.8794   0.00941   0.00413   0.0152  0.1456  1.0000  -3.1927   0.0000   0.2240
   7.600   0.8889   0.00946   0.00420   0.0155  0.1433  1.0000  -3.2926   0.0000   0.2237
   7.700   0.8982   0.00955   0.00428   0.0159  0.1398  1.0000  -3.3915   0.0000   0.2234
   7.800   0.9072   0.00968   0.00438   0.0162  0.1357  1.0000  -3.4884   0.0000   0.2231
   7.900   0.9167   0.00976   0.00446   0.0165  0.1319  1.0000  -3.5866   0.0000   0.2228
   8.000   0.9256   0.00992   0.00458   0.0169  0.1251  1.0000  -3.6813   0.0000   0.2225
   8.100   0.9340   0.01016   0.00474   0.0172  0.1112  1.0000  -3.7806   0.0000   0.2221
   8.200   0.9322   0.01191   0.00597   0.0184  0.0314  1.0000  -3.8055   0.0000   0.2208
   8.300   0.9368   0.01276   0.00670   0.0192  0.0085  1.0000  -3.8624   0.0000   0.2199
   8.400   0.9456   0.01296   0.00694   0.0196  0.0073  1.0000  -3.9553   0.0000   0.2196
   8.500   0.9543   0.01318   0.00716   0.0199  0.0067  1.0000  -4.0547   0.0000   0.2193
   8.600   0.9629   0.01342   0.00743   0.0203  0.0061  1.0000  -4.1490   0.0000   0.2189
   8.700   0.9711   0.01372   0.00778   0.0208  0.0056  1.0000  -4.2334   0.0000   0.2185
   8.800   0.9800   0.01390   0.00797   0.0211  0.0055  1.0000  -4.3428   0.0000   0.2183
   8.900   0.9888   0.01408   0.00818   0.0215  0.0054  1.0000  -4.4524   0.0000   0.2180
   9.000   0.9975   0.01428   0.00840   0.0218  0.0052  1.0000  -4.5626   0.0000   0.2177
   9.100   1.0062   0.01449   0.00863   0.0222  0.0051  1.0000  -4.6738   0.0000   0.2174
   9.200   1.0148   0.01470   0.00887   0.0225  0.0050  1.0000  -4.7861   0.0000   0.2171
   9.300   1.0233   0.01491   0.00911   0.0229  0.0048  1.0000  -4.8995   0.0000   0.2168
   9.400   1.0316   0.01514   0.00936   0.0233  0.0047  1.0000  -5.0136   0.0000   0.2165
   9.500   1.0399   0.01537   0.00962   0.0237  0.0046  1.0000  -5.1281   0.0000   0.2161
   9.600   1.0480   0.01562   0.00989   0.0241  0.0045  1.0000  -5.2423   0.0000   0.2158
   9.700   1.0560   0.01587   0.01017   0.0245  0.0044  1.0000  -5.3551   0.0000   0.2155
   9.800   1.0638   0.01614   0.01047   0.0249  0.0043  1.0000  -5.4672   0.0000   0.2151
   9.900   1.0714   0.01643   0.01078   0.0254  0.0043  1.0000  -5.5788   0.0000   0.2147
  10.000   1.0788   0.01672   0.01111   0.0258  0.0042  1.0000  -5.6894   0.0000   0.2143
  10.100   1.0860   0.01703   0.01145   0.0263  0.0042  1.0000  -5.7986   0.0000   0.2139
  10.200   1.0929   0.01736   0.01182   0.0268  0.0041  1.0000  -5.9059   0.0000   0.2134
  10.300   1.0995   0.01771   0.01220   0.0273  0.0041  1.0000  -6.0107   0.0000   0.2130
  10.400   1.1057   0.01807   0.01261   0.0279  0.0040  1.0000  -6.1128   0.0000   0.2125
  10.500   1.1115   0.01847   0.01304   0.0285  0.0040  1.0000  -6.2114   0.0000   0.2119
  10.600   1.1169   0.01888   0.01350   0.0291  0.0039  1.0000  -6.3063   0.0000   0.2113
  10.700   1.1217   0.01933   0.01399   0.0298  0.0039  1.0000  -6.3965   0.0000   0.2107
  10.800   1.1258   0.01980   0.01451   0.0306  0.0038  1.0000  -6.4816   0.0000   0.2100
  10.900   1.1293   0.02030   0.01506   0.0314  0.0038  1.0000  -6.5608   0.0000   0.2092
  11.000   1.1319   0.02084   0.01565   0.0322  0.0038  1.0000  -6.6335   0.0000   0.2084
  11.100   1.1335   0.02140   0.01626   0.0332  0.0038  1.0000  -6.6991   0.0000   0.2074
  11.200   1.1341   0.02200   0.01691   0.0342  0.0037  1.0000  -6.7568   0.0000   0.2064
  11.300   1.1335   0.02263   0.01759   0.0354  0.0037  1.0000  -6.8061   0.0000   0.2052
  11.400   1.1316   0.02329   0.01831   0.0366  0.0037  1.0000  -6.8466   0.0000   0.2039
  11.500   1.1256   0.02385   0.01891   0.0386  0.0037  1.0000  -6.8648   0.0000   0.2018
  11.600   1.1190   0.02446   0.01957   0.0404  0.0037  1.0000  -6.8775   0.0000   0.1998
  11.700   1.1127   0.02530   0.02047   0.0415  0.0037  1.0000  -6.8888   0.0000   0.1984
  11.800   1.1068   0.02657   0.02181   0.0414  0.0037  1.0000  -6.8948   0.0000   0.1982
  11.900   1.1019   0.02827   0.02358   0.0401  0.0037  1.0000  -6.8994   0.0000   0.1990
  12.000   1.0974   0.03003   0.02540   0.0389  0.0037  1.0000  -6.9054   0.0000   0.1997
  12.100   1.0928   0.03178   0.02721   0.0379  0.0037  1.0000  -6.9102   0.0000   0.2003
  12.200   1.0879   0.03357   0.02905   0.0369  0.0037  1.0000  -6.9130   0.0000   0.2009
  12.300   1.0828   0.03540   0.03093   0.0359  0.0036  1.0000  -6.9136   0.0000   0.2014
  12.400   1.0775   0.03726   0.03284   0.0350  0.0036  1.0000  -6.9123   0.0000   0.2019
  12.500   1.0720   0.03916   0.03478   0.0340  0.0036  1.0000  -6.9093   0.0000   0.2024
  12.600   1.0665   0.04107   0.03674   0.0331  0.0036  1.0000  -6.9049   0.0000   0.2029
  12.700   1.0608   0.04299   0.03871   0.0322  0.0036  1.0000  -6.8992   0.0000   0.2034
  12.800   1.0551   0.04492   0.04068   0.0313  0.0036  1.0000  -6.8924   0.0000   0.2039
  12.900   1.0493   0.04685   0.04265   0.0305  0.0036  1.0000  -6.8849   0.0000   0.2043
  13.000   1.0436   0.04880   0.04464   0.0296  0.0036  1.0000  -6.8769   0.0000   0.2048
  13.100   1.0379   0.05075   0.04663   0.0288  0.0036  1.0000  -6.8685   0.0000   0.2053
  13.200   1.0322   0.05270   0.04861   0.0279  0.0036  1.0000  -6.8597   0.0000   0.2058
  13.300   1.0266   0.05464   0.05059   0.0271  0.0036  1.0000  -6.8508   0.0000   0.2063
  13.400   1.0210   0.05656   0.05254   0.0263  0.0036  1.0000  -6.8420   0.0000   0.2067
  13.500   1.0156   0.05846   0.05448   0.0255  0.0036  1.0000  -6.8336   0.0000   0.2072
  13.600   1.0103   0.06038   0.05643   0.0247  0.0036  1.0000  -6.8249   0.0000   0.2077
  13.700   1.0052   0.06227   0.05835   0.0239  0.0036  1.0000  -6.8172   0.0000   0.2082
  13.800   1.0002   0.06414   0.06025   0.0231  0.0036  1.0000  -6.8104   0.0000   0.2087
  14.300   0.9820   0.07292   0.06916   0.0194  0.0036  1.0000  -6.8340   0.0000   0.2111
  14.400   0.9792   0.07463   0.07089   0.0187  0.0036  1.0000  -6.8464   0.0000   0.2116
  14.500   0.9770   0.07626   0.07255   0.0180  0.0036  1.0000  -6.8639   0.0000   0.2121
  14.600   0.9749   0.07787   0.07418   0.0174  0.0036  1.0000  -6.8825   0.0000   0.2126
  14.700   0.9727   0.07951   0.07584   0.0167  0.0036  1.0000  -6.8994   0.0000   0.2131
  14.800   0.9709   0.08108   0.07744   0.0160  0.0036  1.0000  -6.9206   0.0000   0.2135
  14.900   0.9695   0.08261   0.07899   0.0154  0.0036  1.0000  -6.9449   0.0000   0.2140
  15.000   0.9679   0.08419   0.08059   0.0148  0.0036  1.0000  -6.9663   0.0000   0.2144
  15.100   0.9664   0.08574   0.08216   0.0141  0.0036  1.0000  -6.9892   0.0000   0.2149
  15.200   0.9654   0.08724   0.08368   0.0135  0.0036  1.0000  -7.0160   0.0000   0.2153
  15.300   0.9645   0.08870   0.08517   0.0130  0.0036  1.0000  -7.0445   0.0000   0.2157
  15.400   0.9635   0.09020   0.08668   0.0124  0.0036  1.0000  -7.0707   0.0000   0.2162
  15.500   0.9625   0.09170   0.08820   0.0118  0.0036  1.0000  -7.0963   0.0000   0.2166
  15.600   0.9618   0.09315   0.08967   0.0112  0.0036  1.0000  -7.1249   0.0000   0.2170
  15.700   0.9613   0.09456   0.09111   0.0106  0.0035  1.0000  -7.1555   0.0000   0.2174
  15.800   0.9610   0.09596   0.09252   0.0101  0.0035  1.0000  -7.1872   0.0000   0.2178
  15.900   0.9606   0.09737   0.09395   0.0095  0.0035  1.0000  -7.2171   0.0000   0.2182
  16.000   0.9601   0.09881   0.09542   0.0089  0.0035  1.0000  -7.2456   0.0000   0.2187
  16.100   0.9598   0.10022   0.09684   0.0083  0.0035  1.0000  -7.2754   0.0000   0.2191
  16.200   0.9597   0.10159   0.09823   0.0078  0.0035  1.0000  -7.3073   0.0000   0.2195
  16.300   0.9597   0.10293   0.09960   0.0073  0.0035  1.0000  -7.3396   0.0000   0.2199
  16.400   0.9597   0.10426   0.10095   0.0067  0.0035  1.0000  -7.3723   0.0000   0.2202
  16.500   0.9598   0.10561   0.10231   0.0062  0.0035  1.0000  -7.4036   0.0000   0.2206
  16.600   0.9597   0.10698   0.10370   0.0056  0.0035  1.0000  -7.4328   0.0000   0.2210
  16.700   0.9597   0.10835   0.10509   0.0050  0.0034  1.0000  -7.4616   0.0000   0.2215
  16.800   0.9598   0.10970   0.10646   0.0045  0.0034  1.0000  -7.4913   0.0000   0.2219
  16.900   0.9600   0.11103   0.10781   0.0039  0.0034  1.0000  -7.5214   0.0000   0.2223
  17.000   0.9603   0.11233   0.10914   0.0033  0.0034  1.0000  -7.5519   0.0000   0.2227
  17.100   0.9606   0.11364   0.11046   0.0028  0.0034  1.0000  -7.5818   0.0000   0.2231
  17.200   0.9609   0.11494   0.11179   0.0022  0.0034  1.0000  -7.6103   0.0000   0.2235
  17.300   0.9609   0.11630   0.11317   0.0016  0.0034  1.0000  -7.6352   0.0000   0.2239
  17.400   0.9609   0.11767   0.11456   0.0010  0.0034  1.0000  -7.6583   0.0000   0.2244
  17.500   0.9610   0.11903   0.11594   0.0004  0.0034  1.0000  -7.6813   0.0000   0.2248
  17.600   0.9611   0.12038   0.11731  -0.0002  0.0034  1.0000  -7.7043   0.0000   0.2253
  17.700   0.9613   0.12172   0.11868  -0.0009  0.0033  1.0000  -7.7266   0.0000   0.2258
  17.800   0.9615   0.12307   0.12005  -0.0015  0.0033  1.0000  -7.7477   0.0000   0.2262
  17.900   0.9616   0.12442   0.12142  -0.0021  0.0033  1.0000  -7.7675   0.0000   0.2267
  18.000   0.9616   0.12581   0.12284  -0.0028  0.0033  1.0000  -7.7837   0.0000   0.2272
  18.100   0.9613   0.12726   0.12431  -0.0035  0.0033  1.0000  -7.7958   0.0000   0.2278
  18.200   0.9609   0.12871   0.12580  -0.0043  0.0033  1.0000  -7.8061   0.0000   0.2284
  18.300   0.9606   0.13017   0.12728  -0.0050  0.0033  1.0000  -7.8156   0.0000   0.2290
  18.400   0.9603   0.13163   0.12876  -0.0057  0.0033  1.0000  -7.8238   0.0000   0.2296
  18.500   0.9599   0.13310   0.13026  -0.0065  0.0033  1.0000  -7.8301   0.0000   0.2302
  18.600   0.9595   0.13459   0.13178  -0.0073  0.0033  1.0000  -7.8342   0.0000   0.2308
  18.700   0.9587   0.13617   0.13339  -0.0082  0.0033  1.0000  -7.8319   0.0000   0.2316
  18.800   0.9577   0.13780   0.13505  -0.0091  0.0033  1.0000  -7.8257   0.0000   0.2324
  18.900   0.9567   0.13942   0.13670  -0.0100  0.0033  1.0000  -7.8183   0.0000   0.2332
  19.000   0.9557   0.14105   0.13836  -0.0109  0.0033  1.0000  -7.8091   0.0000   0.2340
  19.100   0.9547   0.14269   0.14004  -0.0118  0.0033  1.0000  -7.7978   0.0000   0.2348
  19.200   0.9533   0.14442   0.14180  -0.0128  0.0033  1.0000  -7.7801   0.0000   0.2357
  19.300   0.9516   0.14624   0.14365  -0.0139  0.0033  1.0000  -7.7557   0.0000   0.2367
  19.400   0.9499   0.14805   0.14550  -0.0150  0.0033  1.0000  -7.7302   0.0000   0.2378
  19.500   0.9483   0.14986   0.14734  -0.0161  0.0033  1.0000  -7.7032   0.0000   0.2388
  19.600   0.9464   0.15173   0.14924  -0.0172  0.0033  1.0000  -7.6713   0.0000   0.2399
  19.700   0.9440   0.15374   0.15129  -0.0185  0.0033  1.0000  -7.6287   0.0000   0.2411
  19.800   0.9417   0.15575   0.15334  -0.0197  0.0034  1.0000  -7.5843   0.0000   0.2424
  19.900   0.9394   0.15776   0.15539  -0.0210  0.0034  1.0000  -7.5376   0.0000   0.2437
  20.000   0.9366   0.15988   0.15754  -0.0223  0.0034  1.0000  -7.4818   0.0000   0.2451
  20.100   0.9335   0.16213   0.15983  -0.0238  0.0034  1.0000  -7.4157   0.0000   0.2466
  20.200   0.9304   0.16436   0.16210  -0.0252  0.0034  1.0000  -7.3470   0.0000   0.2481
  20.300   0.9270   0.16670   0.16447  -0.0267  0.0034  1.0000  -7.2673   0.0000   0.2498
  20.400   0.9229   0.16925   0.16707  -0.0284  0.0035  1.0000  -7.1680   0.0000   0.2517
  20.500   0.9184   0.17189   0.16974  -0.0300  0.0035  1.0000  -7.0515   0.0000   0.2536
  20.600   0.9196   0.17253   0.17038  -0.0302  0.0037  1.0000  -6.9862   0.0000   0.2534
  20.700   0.9189   0.17434   0.17222  -0.0314  0.0037  1.0000  -6.9737   0.0000   0.2547
  20.800   0.9181   0.17619   0.17409  -0.0326  0.0037  1.0000  -6.9571   0.0000   0.2559
  20.900   0.9169   0.17818   0.17610  -0.0339  0.0037  1.0000  -6.9301   0.0000   0.2574
  21.000   0.9161   0.18008   0.17803  -0.0352  0.0037  1.0000  -6.9066   0.0000   0.2587
  21.100   0.9151   0.18202   0.18000  -0.0365  0.0038  1.0000  -6.8782   0.0000   0.2601
  21.200   0.9136   0.18417   0.18217  -0.0379  0.0038  1.0000  -6.8328   0.0000   0.2616
  21.300   0.9122   0.18627   0.18430  -0.0393  0.0038  1.0000  -6.7858   0.0000   0.2631
  21.400   0.9099   0.18872   0.18679  -0.0409  0.0038  1.0000  -6.7018   0.0000   0.2650
  22.500   0.7670   0.27483   0.27349  -0.0939  0.0058  1.0000  -2.0004   0.0000   0.3517
  22.600   0.7695   0.27631   0.27497  -0.0949  0.0058  1.0000  -2.0298   0.0000   0.3524
  22.700   0.7696   0.27976   0.27842  -0.0964  0.0056  1.0000  -1.9355   0.0000   0.3544
  22.800   0.7717   0.28184   0.28050  -0.0975  0.0056  1.0000  -1.9212   0.0000   0.3554
  22.900   0.7738   0.28391   0.28258  -0.0986  0.0056  1.0000  -1.9074   0.0000   0.3564
  23.000   0.7759   0.28598   0.28465  -0.0997  0.0056  1.0000  -1.8940   0.0000   0.3573
  23.100   0.7779   0.28805   0.28672  -0.1007  0.0056  1.0000  -1.8810   0.0000   0.3583
  23.200   0.7800   0.29011   0.28879  -0.1018  0.0056  1.0000  -1.8683   0.0000   0.3592
  23.300   0.7821   0.29217   0.29085  -0.1029  0.0056  1.0000  -1.8559   0.0000   0.3601
  23.400   0.7842   0.29424   0.29292  -0.1039  0.0056  1.0000  -1.8435   0.0000   0.3609
  23.500   0.7862   0.29629   0.29498  -0.1050  0.0056  1.0000  -1.8312   0.0000   0.3618
  23.600   0.7883   0.29835   0.29705  -0.1060  0.0056  1.0000  -1.8188   0.0000   0.3627
  23.700   0.7903   0.30042   0.29912  -0.1071  0.0056  1.0000  -1.8057   0.0000   0.3635
  23.800   0.7922   0.30266   0.30136  -0.1081  0.0056  1.0000  -1.7812   0.0000   0.3645
  23.900   0.7940   0.30499   0.30369  -0.1092  0.0055  1.0000  -1.7496   0.0000   0.3655
  24.000   0.7954   0.30782   0.30653  -0.1105  0.0054  1.0000  -1.6818   0.0000   0.3668
  24.100   0.7971   0.31067   0.30937  -0.1117  0.0052  1.0000  -1.6124   0.0000   0.3680
  24.200   0.7991   0.31291   0.31161  -0.1127  0.0051  1.0000  -1.5881   0.0000   0.3688
  24.300   0.8011   0.31498   0.31369  -0.1137  0.0050  1.0000  -1.5756   0.0000   0.3696
  24.400   0.8032   0.31702   0.31574  -0.1147  0.0049  1.0000  -1.5670   0.0000   0.3703
  24.500   0.8052   0.31904   0.31776  -0.1156  0.0048  1.0000  -1.5604   0.0000   0.3710
  24.600   0.8072   0.32103   0.31976  -0.1166  0.0047  1.0000  -1.5553   0.0000   0.3717
  24.700   0.8092   0.32301   0.32174  -0.1176  0.0047  1.0000  -1.5513   0.0000   0.3723
  24.800   0.8112   0.32498   0.32371  -0.1185  0.0046  1.0000  -1.5483   0.0000   0.3730
  24.900   0.8132   0.32694   0.32568  -0.1195  0.0045  1.0000  -1.5462   0.0000   0.3736
  25.000   0.8152   0.32889   0.32763  -0.1204  0.0044  1.0000  -1.5450   0.0000   0.3742


