xflr5 v6.47

 Calculated polar for: Wing2

 1 1 Reynolds number fixed          Mach number fixed         

 xtrf =   1.000 (top)        1.000 (bottom)
 Mach =   0.000     Re =    10.000 e 6     Ncrit =   9.000

  alpha     CL        CD       CDp       Cm    Top Xtr Bot Xtr   Cpmin    Chinge    XCp    
 ------- -------- --------- --------- -------- ------- ------- -------- --------- ---------
 -25.000  -0.8742   0.24281   0.24221   0.0823  0.9994  0.0010  -7.9997   0.0000   0.3163
 -24.900  -0.8727   0.24168   0.24107   0.0815  0.9994  0.0010  -8.0325   0.0000   0.3158
 -24.800  -0.8709   0.24063   0.24002   0.0808  0.9994  0.0010  -8.0440   0.0000   0.3153
 -24.700  -0.8691   0.23960   0.23899   0.0801  0.9994  0.0011  -8.0489   0.0000   0.3149
 -24.600  -0.8767   0.23535   0.23472   0.0786  0.9995  0.0011  -8.7804   0.0000   0.3117
 -24.500  -0.8752   0.23422   0.23359   0.0778  0.9995  0.0011  -8.7993   0.0000   0.3111
 -24.400  -0.8734   0.23316   0.23252   0.0771  0.9995  0.0011  -8.8018   0.0000   0.3106
 -24.300  -0.8716   0.23211   0.23148   0.0764  0.9995  0.0011  -8.7986   0.0000   0.3101
 -24.200  -0.8698   0.23107   0.23043   0.0756  0.9995  0.0011  -8.7936   0.0000   0.3096
 -24.100  -0.8757   0.22762   0.22696   0.0741  0.9995  0.0012  -9.3019   0.0000   0.3070
 -24.000  -0.8748   0.22631   0.22565   0.0733  0.9995  0.0012  -9.3485   0.0000   0.3062
 -23.900  -0.8732   0.22518   0.22452   0.0725  0.9995  0.0012  -9.3550   0.0000   0.3056
 -23.800  -0.8721   0.22393   0.22326   0.0717  0.9995  0.0012  -9.3900   0.0000   0.3049
 -23.700  -0.8709   0.22272   0.22204   0.0710  0.9995  0.0012  -9.4153   0.0000   0.3043
 -23.600  -0.8695   0.22154   0.22086   0.0702  0.9995  0.0013  -9.4316   0.0000   0.3036
 -23.400  -0.8754   0.21677   0.21606   0.0677  0.9996  0.0014  -9.9475   0.0000   0.3001
 -23.300  -0.8752   0.21528   0.21456   0.0668  0.9996  0.0014  -10.0164   0.0000   0.2991
 -23.200  -0.8746   0.21391   0.21319   0.0659  0.9996  0.0014  -10.0595   0.0000   0.2983
 -23.100  -0.8740   0.21252   0.21180   0.0650  0.9996  0.0015  -10.1050   0.0000   0.2974
 -22.900  -0.8830   0.20712   0.20637   0.0621  0.9996  0.0015  -10.6886   0.0000   0.2931
 -22.800  -0.8833   0.20553   0.20477   0.0611  0.9996  0.0016  -10.7611   0.0000   0.2920
 -22.700  -0.8836   0.20396   0.20320   0.0601  0.9996  0.0016  -10.8277   0.0000   0.2910
 -22.600  -0.8937   0.19996   0.19917   0.0579  0.9997  0.0016  -11.3423   0.0000   0.2874
 -22.500  -0.8949   0.19821   0.19742   0.0568  0.9997  0.0016  -11.4337   0.0000   0.2862
 -22.400  -0.9045   0.19446   0.19364   0.0546  0.9997  0.0017  -11.8855   0.0000   0.2829
 -22.300  -0.9079   0.19222   0.19138   0.0532  0.9997  0.0017  -12.0571   0.0000   0.2811
 -22.100  -0.9179   0.18436   0.18346   0.0466  1.0000  0.0017  -12.7425   0.0000   0.2731
 -22.000  -0.9328   0.17938   0.17844   0.0432  1.0000  0.0017  -13.3389   0.0000   0.2684
 -21.900  -0.9498   0.17427   0.17328   0.0398  1.0000  0.0017  -13.9609   0.0000   0.2638
 -21.800  -0.9693   0.16877   0.16774   0.0362  1.0000  0.0017  -14.6339   0.0000   0.2590
 -21.700  -0.9919   0.16280   0.16170   0.0321  1.0000  0.0017  -15.3686   0.0000   0.2538
 -21.600  -1.0178   0.15626   0.15509   0.0275  1.0000  0.0017  -16.1721   0.0000   0.2483
 -21.500  -1.0628   0.14626   0.14498   0.0204  1.0000  0.0016  -17.4948   0.0000   0.2402
 -21.300  -1.2003   0.11829   0.11667   0.0003  1.0000  0.0014  -21.1641   0.0000   0.2207
 -21.200  -1.2632   0.10566   0.10388  -0.0087  1.0000  0.0013  -22.6846   0.0000   0.2136
 -21.100  -1.3131   0.09539   0.09348  -0.0159  1.0000  0.0012  -23.8221   0.0000   0.2085
 -21.000  -1.3512   0.08731   0.08530  -0.0214  1.0000  0.0012  -24.6388   0.0000   0.2050
 -20.900  -1.3798   0.08105   0.07896  -0.0256  1.0000  0.0012  -25.2079   0.0000   0.2025
 -20.800  -1.4042   0.07569   0.07351  -0.0292  1.0000  0.0012  -25.6641   0.0000   0.2005
 -20.700  -1.4281   0.07057   0.06832  -0.0325  1.0000  0.0012  -26.0963   0.0000   0.1988
 -20.600  -1.4484   0.06619   0.06388  -0.0353  1.0000  0.0012  -26.4369   0.0000   0.1974
 -20.500  -1.4659   0.06237   0.05999  -0.0377  1.0000  0.0012  -26.7089   0.0000   0.1964
 -20.400  -1.4809   0.05905   0.05661  -0.0396  1.0000  0.0012  -26.9170   0.0000   0.1956
 -20.300  -1.4935   0.05613   0.05365  -0.0412  1.0000  0.0012  -27.0703   0.0000   0.1950
 -20.200  -1.5054   0.05339   0.05086  -0.0427  1.0000  0.0012  -27.2039   0.0000   0.1945
 -20.100  -1.5155   0.05099   0.04841  -0.0439  1.0000  0.0012  -27.2940   0.0000   0.1942
 -20.000  -1.5251   0.04870   0.04608  -0.0449  1.0000  0.0012  -27.3723   0.0000   0.1939
 -19.900  -1.5335   0.04665   0.04399  -0.0458  1.0000  0.0012  -27.4205   0.0000   0.1938
 -19.800  -1.5415   0.04471   0.04200  -0.0466  1.0000  0.0012  -27.4587   0.0000   0.1937
 -19.700  -1.5486   0.04293   0.04019  -0.0471  1.0000  0.0012  -27.4751   0.0000   0.1937
 -19.600  -1.5554   0.04124   0.03847  -0.0476  1.0000  0.0012  -27.4836   0.0000   0.1938
 -19.500  -1.5616   0.03970   0.03689  -0.0479  1.0000  0.0012  -27.4757   0.0000   0.1939
 -19.400  -1.5675   0.03825   0.03540  -0.0481  1.0000  0.0012  -27.4612   0.0000   0.1942
 -19.300  -1.5729   0.03692   0.03404  -0.0481  1.0000  0.0012  -27.4328   0.0000   0.1945
 -19.200  -1.5780   0.03568   0.03277  -0.0480  1.0000  0.0012  -27.3962   0.0000   0.1949
 -19.100  -1.5827   0.03453   0.03159  -0.0478  1.0000  0.0012  -27.3520   0.0000   0.1953
 -19.000  -1.5873   0.03345   0.03048  -0.0475  1.0000  0.0012  -27.3019   0.0000   0.1958
 -18.900  -1.5920   0.03241   0.02941  -0.0471  1.0000  0.0012  -27.2542   0.0000   0.1964
 -18.800  -1.5966   0.03143   0.02840  -0.0465  1.0000  0.0012  -27.2004   0.0000   0.1970
 -18.700  -1.6010   0.03050   0.02744  -0.0459  1.0000  0.0012  -27.1439   0.0000   0.1977
 -18.600  -1.6047   0.02966   0.02657  -0.0452  1.0000  0.0012  -27.0731   0.0000   0.1985
 -18.500  -1.6081   0.02887   0.02575  -0.0444  1.0000  0.0012  -26.9956   0.0000   0.1992
 -18.400  -1.6120   0.02810   0.02495  -0.0435  1.0000  0.0012  -26.9251   0.0000   0.2000
 -18.300  -1.6145   0.02742   0.02424  -0.0426  1.0000  0.0012  -26.8303   0.0000   0.2008
 -18.200  -1.6180   0.02674   0.02354  -0.0416  1.0000  0.0012  -26.7509   0.0000   0.2017
 -18.100  -1.6200   0.02615   0.02292  -0.0406  1.0000  0.0012  -26.6454   0.0000   0.2026
 -18.000  -1.6232   0.02556   0.02230  -0.0394  1.0000  0.0012  -26.5594   0.0000   0.2035
 -17.900  -1.6246   0.02503   0.02175  -0.0383  1.0000  0.0012  -26.4425   0.0000   0.2044
 -17.800  -1.6271   0.02450   0.02120  -0.0370  1.0000  0.0013  -26.3433   0.0000   0.2054
 -17.700  -1.6286   0.02402   0.02069  -0.0358  1.0000  0.0013  -26.2285   0.0000   0.2064
 -17.600  -1.6296   0.02357   0.02022  -0.0345  1.0000  0.0013  -26.1042   0.0000   0.2073
 -17.500  -1.6320   0.02313   0.01975  -0.0331  1.0000  0.0013  -26.0006   0.0000   0.2084
 -17.400  -1.6325   0.02273   0.01933  -0.0318  1.0000  0.0013  -25.8680   0.0000   0.2094
 -17.300  -1.6328   0.02236   0.01894  -0.0305  1.0000  0.0013  -25.7323   0.0000   0.2104
 -17.200  -1.6344   0.02200   0.01856  -0.0289  1.0000  0.0013  -25.6153   0.0000   0.2115
 -17.100  -1.6354   0.02166   0.01820  -0.0274  1.0000  0.0013  -25.4876   0.0000   0.2126
 -17.000  -1.6348   0.02134   0.01785  -0.0260  1.0000  0.0014  -25.3383   0.0000   0.2136
 -16.900  -1.6350   0.02102   0.01752  -0.0245  1.0000  0.0014  -25.1981   0.0000   0.2147
 -16.800  -1.6367   0.02072   0.01720  -0.0227  1.0000  0.0014  -25.0800   0.0000   0.2160
 -16.700  -1.6370   0.02044   0.01690  -0.0211  1.0000  0.0014  -24.9417   0.0000   0.2172
 -16.600  -1.6356   0.02017   0.01661  -0.0197  1.0000  0.0014  -24.7785   0.0000   0.2182
 -16.500  -1.6343   0.01992   0.01634  -0.0182  1.0000  0.0015  -24.6180   0.0000   0.2193
 -16.400  -1.6336   0.01969   0.01609  -0.0166  1.0000  0.0015  -24.4645   0.0000   0.2204
 -16.300  -1.6341   0.01947   0.01586  -0.0147  1.0000  0.0015  -24.3281   0.0000   0.2217
 -16.200  -1.6381   0.01930   0.01567  -0.0121  1.0000  0.0015  -24.2388   0.0000   0.2235
 -16.100  -1.6408   0.01912   0.01547  -0.0097  1.0000  0.0015  -24.1314   0.0000   0.2251
 -16.000  -1.6369   0.01889   0.01522  -0.0086  1.0000  0.0016  -23.9344   0.0000   0.2259
 -15.900  -1.6324   0.01865   0.01497  -0.0076  1.0000  0.0016  -23.7307   0.0000   0.2267
 -15.800  -1.6276   0.01842   0.01472  -0.0066  1.0000  0.0016  -23.5225   0.0000   0.2275
 -15.700  -1.6225   0.01819   0.01448  -0.0057  1.0000  0.0016  -23.3103   0.0000   0.2282
 -15.600  -1.6171   0.01796   0.01424  -0.0048  1.0000  0.0016  -23.0945   0.0000   0.2289
 -15.500  -1.6113   0.01773   0.01400  -0.0040  1.0000  0.0017  -22.8754   0.0000   0.2296
 -15.400  -1.6053   0.01751   0.01377  -0.0032  1.0000  0.0017  -22.6533   0.0000   0.2302
 -15.300  -1.5990   0.01730   0.01354  -0.0024  1.0000  0.0017  -22.4287   0.0000   0.2308
 -15.200  -1.5926   0.01709   0.01332  -0.0017  1.0000  0.0017  -22.2019   0.0000   0.2315
 -15.100  -1.5859   0.01688   0.01310  -0.0010  1.0000  0.0018  -21.9732   0.0000   0.2321
 -15.000  -1.5790   0.01667   0.01289  -0.0004  1.0000  0.0018  -21.7428   0.0000   0.2327
 -14.900  -1.5719   0.01647   0.01268   0.0003  1.0000  0.0018  -21.5109   0.0000   0.2332
 -14.800  -1.5646   0.01628   0.01247   0.0009  1.0000  0.0018  -21.2777   0.0000   0.2338
 -14.700  -1.5572   0.01608   0.01227   0.0015  1.0000  0.0018  -21.0434   0.0000   0.2343
 -14.600  -1.5496   0.01590   0.01207   0.0021  1.0000  0.0019  -20.8082   0.0000   0.2349
 -14.500  -1.5419   0.01571   0.01188   0.0026  1.0000  0.0019  -20.5722   0.0000   0.2354
 -14.400  -1.5340   0.01553   0.01169   0.0031  1.0000  0.0019  -20.3357   0.0000   0.2359
 -14.300  -1.5260   0.01535   0.01151   0.0037  1.0000  0.0019  -20.0986   0.0000   0.2365
 -14.200  -1.5179   0.01518   0.01133   0.0042  1.0000  0.0019  -19.8610   0.0000   0.2370
 -14.100  -1.5097   0.01501   0.01115   0.0046  1.0000  0.0020  -19.6233   0.0000   0.2375
 -14.000  -1.5014   0.01484   0.01097   0.0051  1.0000  0.0020  -19.3855   0.0000   0.2380
 -13.900  -1.4929   0.01468   0.01080   0.0056  1.0000  0.0020  -19.1478   0.0000   0.2384
 -13.800  -1.4844   0.01452   0.01063   0.0060  1.0000  0.0020  -18.9101   0.0000   0.2389
 -13.700  -1.4758   0.01436   0.01047   0.0064  1.0000  0.0020  -18.6726   0.0000   0.2394
 -13.600  -1.4671   0.01420   0.01031   0.0068  1.0000  0.0020  -18.4354   0.0000   0.2399
 -13.500  -1.4583   0.01405   0.01015   0.0073  1.0000  0.0020  -18.1985   0.0000   0.2403
 -13.400  -1.4495   0.01390   0.00999   0.0076  1.0000  0.0020  -17.9619   0.0000   0.2408
 -13.300  -1.4405   0.01375   0.00983   0.0080  1.0000  0.0020  -17.7259   0.0000   0.2413
 -13.200  -1.4315   0.01360   0.00968   0.0084  1.0000  0.0021  -17.4904   0.0000   0.2417
 -13.100  -1.4225   0.01346   0.00953   0.0088  1.0000  0.0021  -17.2555   0.0000   0.2422
 -13.000  -1.4133   0.01331   0.00938   0.0091  1.0000  0.0021  -17.0212   0.0000   0.2426
 -12.900  -1.4041   0.01317   0.00924   0.0095  1.0000  0.0021  -16.7877   0.0000   0.2431
 -12.800  -1.3949   0.01303   0.00909   0.0098  1.0000  0.0021  -16.5548   0.0000   0.2435
 -12.700  -1.3855   0.01290   0.00895   0.0102  1.0000  0.0021  -16.3228   0.0000   0.2439
 -12.600  -1.3762   0.01276   0.00881   0.0105  1.0000  0.0021  -16.0916   0.0000   0.2444
 -12.500  -1.3668   0.01263   0.00867   0.0108  1.0000  0.0021  -15.8612   0.0000   0.2448
 -12.400  -1.3573   0.01250   0.00854   0.0111  1.0000  0.0021  -15.6318   0.0000   0.2452
 -12.300  -1.3478   0.01237   0.00840   0.0114  1.0000  0.0021  -15.4033   0.0000   0.2457
 -12.200  -1.3382   0.01224   0.00827   0.0117  1.0000  0.0021  -15.1757   0.0000   0.2461
 -12.100  -1.3286   0.01211   0.00814   0.0120  1.0000  0.0021  -14.9492   0.0000   0.2465
 -12.000  -1.3189   0.01198   0.00801   0.0123  1.0000  0.0021  -14.7237   0.0000   0.2470
 -11.900  -1.3094   0.01184   0.00786   0.0126  1.0000  0.0021  -14.5035   0.0000   0.2474
 -11.800  -1.2998   0.01170   0.00771   0.0129  1.0000  0.0022  -14.2848   0.0000   0.2479
 -11.700  -1.2902   0.01156   0.00756   0.0132  1.0000  0.0022  -14.0668   0.0000   0.2483
 -11.600  -1.2805   0.01142   0.00742   0.0135  1.0000  0.0023  -13.8495   0.0000   0.2488
 -11.500  -1.2708   0.01128   0.00728   0.0138  1.0000  0.0024  -13.6330   0.0000   0.2492
 -11.400  -1.2610   0.01115   0.00714   0.0140  1.0000  0.0024  -13.4174   0.0000   0.2496
 -11.300  -1.2512   0.01102   0.00701   0.0143  1.0000  0.0025  -13.2027   0.0000   0.2501
 -11.200  -1.2413   0.01089   0.00687   0.0146  1.0000  0.0026  -12.9890   0.0000   0.2505
 -11.100  -1.2314   0.01076   0.00674   0.0148  1.0000  0.0027  -12.7763   0.0000   0.2510
 -11.000  -1.2214   0.01063   0.00662   0.0151  0.9968  0.0027  -12.5637   0.0000   0.2514
 -10.900  -1.2134   0.01094   0.00646   0.0157  0.7679  0.0028  -12.3738   0.0000   0.2521
 -10.800  -1.2036   0.01088   0.00633   0.0160  0.7346  0.0028  -12.1664   0.0000   0.2526
 -10.700  -1.1937   0.01079   0.00620   0.0162  0.7151  0.0029  -11.9587   0.0000   0.2530
 -10.600  -1.1836   0.01070   0.00608   0.0164  0.7016  0.0030  -11.7517   0.0000   0.2534
 -10.500  -1.1735   0.01061   0.00597   0.0166  0.6914  0.0030  -11.5454   0.0000   0.2539
 -10.400  -1.1633   0.01052   0.00586   0.0169  0.6817  0.0031  -11.3402   0.0000   0.2543
 -10.300  -1.1531   0.01043   0.00575   0.0171  0.6752  0.0031  -11.1359   0.0000   0.2547
 -10.200  -1.1428   0.01034   0.00564   0.0173  0.6685  0.0032  -10.9328   0.0000   0.2552
 -10.100  -1.1325   0.01025   0.00554   0.0174  0.6619  0.0032  -10.7310   0.0000   0.2556
 -10.000  -1.1221   0.01016   0.00544   0.0176  0.6577  0.0032  -10.5303   0.0000   0.2560
  -9.900  -1.1117   0.01007   0.00534   0.0178  0.6524  0.0033  -10.3311   0.0000   0.2565
  -9.800  -1.1013   0.00999   0.00524   0.0180  0.6469  0.0033  -10.1331   0.0000   0.2569
  -9.700  -1.0908   0.00990   0.00515   0.0182  0.6437  0.0033  -9.9363   0.0000   0.2574
  -9.600  -1.0803   0.00982   0.00506   0.0183  0.6398  0.0033  -9.7410   0.0000   0.2578
  -9.500  -1.0698   0.00975   0.00497   0.0185  0.6352  0.0033  -9.5472   0.0000   0.2582
  -9.400  -1.0593   0.00967   0.00488   0.0187  0.6315  0.0033  -9.3547   0.0000   0.2587
  -9.300  -1.0487   0.00958   0.00480   0.0188  0.6287  0.0034  -9.1638   0.0000   0.2591
  -9.200  -1.0382   0.00950   0.00470   0.0190  0.6252  0.0034  -8.9759   0.0000   0.2596
  -9.100  -1.0277   0.00941   0.00460   0.0192  0.6211  0.0035  -8.7917   0.0000   0.2600
  -9.000  -1.0171   0.00932   0.00450   0.0193  0.6175  0.0037  -8.6188   0.0000   0.2605
  -8.900  -1.0066   0.00923   0.00440   0.0195  0.6150  0.0039  -8.4469   0.0000   0.2610
  -8.800  -0.9960   0.00914   0.00431   0.0197  0.6117  0.0040  -8.2762   0.0000   0.2615
  -8.700  -0.9854   0.00905   0.00421   0.0198  0.6078  0.0042  -8.1066   0.0000   0.2620
  -8.600  -0.9748   0.00897   0.00412   0.0200  0.6039  0.0043  -7.9381   0.0000   0.2624
  -8.500  -0.9641   0.00888   0.00403   0.0201  0.6015  0.0044  -7.7706   0.0000   0.2629
  -8.400  -0.9534   0.00880   0.00395   0.0203  0.5979  0.0045  -7.6043   0.0000   0.2634
  -8.300  -0.9427   0.00873   0.00387   0.0204  0.5937  0.0046  -7.4392   0.0000   0.2639
  -8.200  -0.9319   0.00866   0.00379   0.0205  0.5900  0.0047  -7.2753   0.0000   0.2644
  -8.100  -0.9211   0.00859   0.00372   0.0207  0.5870  0.0048  -7.1126   0.0000   0.2649
  -8.000  -0.9103   0.00853   0.00364   0.0208  0.5827  0.0048  -6.9514   0.0000   0.2654
  -7.800  -0.8886   0.00840   0.00350   0.0210  0.5748  0.0049  -6.6329   0.0000   0.2664
  -7.700  -0.8777   0.00834   0.00343   0.0211  0.5705  0.0049  -6.4758   0.0000   0.2669
  -7.600  -0.8669   0.00828   0.00336   0.0213  0.5649  0.0052  -6.3296   0.0000   0.2675
  -7.500  -0.8560   0.00820   0.00328   0.0214  0.5614  0.0055  -6.1872   0.0000   0.2680
  -7.400  -0.8452   0.00813   0.00320   0.0215  0.5569  0.0058  -6.0460   0.0000   0.2686
  -7.300  -0.8343   0.00807   0.00312   0.0216  0.5513  0.0060  -5.9057   0.0000   0.2692
  -7.200  -0.8235   0.00800   0.00305   0.0217  0.5475  0.0062  -5.7662   0.0000   0.2697
  -7.100  -0.8125   0.00794   0.00298   0.0218  0.5424  0.0064  -5.6278   0.0000   0.2703
  -7.000  -0.8016   0.00789   0.00292   0.0219  0.5367  0.0066  -5.4906   0.0000   0.2709
  -6.900  -0.7906   0.00783   0.00286   0.0220  0.5331  0.0067  -5.3544   0.0000   0.2715
  -6.800  -0.7796   0.00778   0.00280   0.0221  0.5276  0.0068  -5.2195   0.0000   0.2721
  -6.700  -0.7685   0.00773   0.00274   0.0222  0.5223  0.0069  -5.0860   0.0000   0.2727
  -6.600  -0.7575   0.00768   0.00267   0.0223  0.5177  0.0073  -4.9549   0.0000   0.2733
  -6.500  -0.7466   0.00762   0.00261   0.0224  0.5117  0.0078  -4.8253   0.0000   0.2740
  -6.400  -0.7356   0.00756   0.00254   0.0225  0.5075  0.0082  -4.6967   0.0000   0.2746
  -6.300  -0.7246   0.00750   0.00248   0.0226  0.5023  0.0085  -4.5691   0.0000   0.2753
  -6.200  -0.7135   0.00746   0.00242   0.0227  0.4959  0.0088  -4.4426   0.0000   0.2760
  -6.100  -0.7024   0.00741   0.00237   0.0228  0.4919  0.0090  -4.3170   0.0000   0.2767
  -6.000  -0.6913   0.00737   0.00232   0.0228  0.4861  0.0093  -4.1931   0.0000   0.2774
  -5.900  -0.6803   0.00732   0.00226   0.0229  0.4809  0.0101  -4.0715   0.0000   0.2781
  -5.800  -0.6692   0.00726   0.00220   0.0230  0.4761  0.0108  -3.9511   0.0000   0.2789
  -5.700  -0.6582   0.00721   0.00214   0.0231  0.4694  0.0113  -3.8317   0.0000   0.2797
  -5.600  -0.6470   0.00717   0.00209   0.0232  0.4653  0.0117  -3.7184   0.0000   0.2805
  -5.500  -0.6359   0.00713   0.00204   0.0232  0.4597  0.0126  -3.6109   0.0000   0.2813
  -5.400  -0.6248   0.00707   0.00198   0.0233  0.4540  0.0136  -3.5051   0.0000   0.2821
  -5.300  -0.6137   0.00702   0.00193   0.0234  0.4494  0.0143  -3.3997   0.0000   0.2830
  -5.200  -0.6025   0.00699   0.00189   0.0235  0.4427  0.0147  -3.2952   0.0000   0.2839
  -5.100  -0.5913   0.00695   0.00184   0.0235  0.4384  0.0158  -3.1923   0.0000   0.2848
  -5.000  -0.5802   0.00690   0.00179   0.0236  0.4330  0.0170  -3.0910   0.0000   0.2857
  -4.900  -0.5690   0.00686   0.00174   0.0237  0.4269  0.0178  -2.9903   0.0000   0.2867
  -4.800  -0.5578   0.00683   0.00170   0.0237  0.4226  0.0183  -2.8904   0.0000   0.2877
  -4.700  -0.5467   0.00679   0.00166   0.0238  0.4161  0.0201  -2.7928   0.0000   0.2888
  -4.600  -0.5355   0.00674   0.00161   0.0239  0.4115  0.0215  -2.6959   0.0000   0.2899
  -4.500  -0.5242   0.00671   0.00157   0.0239  0.4064  0.0227  -2.5998   0.0000   0.2910
  -4.400  -0.5131   0.00667   0.00153   0.0240  0.3999  0.0247  -2.5057   0.0000   0.2922
  -4.300  -0.5018   0.00663   0.00149   0.0240  0.3963  0.0260  -2.4121   0.0000   0.2934
  -4.200  -0.4906   0.00660   0.00145   0.0241  0.3904  0.0276  -2.3240   0.0000   0.2946
  -4.100  -0.4794   0.00655   0.00141   0.0241  0.3850  0.0297  -2.2410   0.0000   0.2960
  -4.000  -0.4681   0.00652   0.00137   0.0242  0.3806  0.0310  -2.1585   0.0000   0.2973
  -3.900  -0.4569   0.00649   0.00133   0.0242  0.3745  0.0339  -2.0776   0.0000   0.2988
  -3.800  -0.4457   0.00645   0.00129   0.0243  0.3706  0.0361  -1.9973   0.0000   0.3003
  -3.700  -0.4344   0.00640   0.00126   0.0243  0.3660  0.0394  -1.9184   0.0000   0.3019
  -3.500  -0.4119   0.00634   0.00119   0.0244  0.3560  0.0445  -1.7691   0.0000   0.3053
  -3.400  -0.4006   0.00631   0.00116   0.0245  0.3510  0.0474  -1.6998   0.0000   0.3071
  -3.300  -0.3894   0.00628   0.00113   0.0245  0.3453  0.0511  -1.6314   0.0000   0.3090
  -3.200  -0.3781   0.00623   0.00109   0.0246  0.3425  0.0545  -1.5637   0.0000   0.3111
  -3.100  -0.3668   0.00620   0.00107   0.0246  0.3381  0.0583  -1.4969   0.0000   0.3133
  -2.900  -0.3442   0.00614   0.00101   0.0247  0.3291  0.0657  -1.3755   0.0000   0.3180
  -2.800  -0.3329   0.00611   0.00098   0.0247  0.3246  0.0695  -1.3168   0.0000   0.3206
  -2.700  -0.3216   0.00609   0.00096   0.0247  0.3189  0.0736  -1.2588   0.0000   0.3234
  -2.600  -0.3102   0.00605   0.00093   0.0248  0.3166  0.0773  -1.2064   0.0000   0.3263
  -2.500  -0.2989   0.00603   0.00091   0.0248  0.3134  0.0814  -1.1545   0.0000   0.3295
  -2.400  -0.2875   0.00600   0.00089   0.0248  0.3088  0.0857  -1.1035   0.0000   0.3329
  -2.300  -0.2761   0.00599   0.00087   0.0249  0.3045  0.0887  -1.0570   0.0000   0.3366
  -2.200  -0.2648   0.00595   0.00085   0.0249  0.3018  0.0945  -1.0115   0.0000   0.3407
  -2.100  -0.2534   0.00594   0.00083   0.0249  0.2976  0.0977  -0.9678   0.0000   0.3450
  -2.000  -0.2421   0.00591   0.00081   0.0249  0.2923  0.1037  -0.9270   0.0000   0.3498
  -1.900  -0.2307   0.00588   0.00080   0.0250  0.2903  0.1080  -0.8869   0.0000   0.3551
  -1.800  -0.2194   0.00585   0.00078   0.0250  0.2878  0.1144  -0.8500   0.0000   0.3609
  -1.700  -0.2080   0.00583   0.00076   0.0250  0.2842  0.1198  -0.8137   0.0000   0.3673
  -1.600  -0.1966   0.00580   0.00075   0.0250  0.2794  0.1263  -0.7803   0.0000   0.3744
  -1.500  -0.1853   0.00577   0.00073   0.0251  0.2774  0.1336  -0.7475   0.0000   0.3824
  -1.400  -0.1739   0.00575   0.00072   0.0251  0.2745  0.1397  -0.7171   0.0000   0.3915
  -1.300  -0.1626   0.00572   0.00070   0.0251  0.2704  0.1484  -0.6875   0.0000   0.4018
  -1.100  -0.1399   0.00566   0.00067   0.0251  0.2641  0.1656  -0.6327   0.0000   0.4274
  -0.900  -0.1172   0.00559   0.00065   0.0252  0.2588  0.1852  -0.5826   0.0000   0.4628
  -0.800  -0.1059   0.00556   0.00063   0.0252  0.2550  0.1962  -0.5725   0.0000   0.4861
  -0.600  -0.0833   0.00548   0.00061   0.0252  0.2506  0.2193  -0.6014   0.0000   0.5520
  -0.500  -0.0719   0.00545   0.00060   0.0253  0.2478  0.2307  -0.6159   0.0000   0.6005
  -0.400  -0.0606   0.00542   0.00059   0.0253  0.2440  0.2429  -0.6305   0.0000   0.6669
  -0.300  -0.0493   0.00539   0.00059   0.0253  0.2400  0.2549  -0.6451   0.0000   0.7639
  -0.200  -0.0379   0.00535   0.00058   0.0253  0.2386  0.2672  -0.6605   0.0000   0.9192
  -0.100  -0.0266   0.00532   0.00057   0.0253  0.2363  0.2801  -0.6761   0.0000   1.2063
   0.000  -0.0153   0.00529   0.00056   0.0253  0.2336  0.2930  -0.6917   0.0000   1.9177
   0.100  -0.0040   0.00526   0.00056   0.0253  0.2303  0.3056  -0.7074   0.0000   6.6851
   0.200   0.0074   0.00523   0.00056   0.0254  0.2275  0.3177  -0.7232   0.0000  -3.2183
   0.300   0.0188   0.00520   0.00055   0.0254  0.2265  0.3288  -0.7392   0.0000  -1.1161
   0.400   0.0303   0.00519   0.00055   0.0254  0.2248  0.3374  -0.7552   0.0000  -0.6002
   0.500   0.0416   0.00517   0.00055   0.0254  0.2226  0.3483  -0.7712   0.0000  -0.3691
   0.600   0.0530   0.00515   0.00055   0.0254  0.2196  0.3584  -0.7873   0.0000  -0.2371
   0.700   0.0645   0.00515   0.00056   0.0254  0.2158  0.3663  -0.8037   0.0000  -0.1512
   0.800   0.0759   0.00513   0.00056   0.0254  0.2145  0.3752  -0.8209   0.0000  -0.0914
   0.900   0.0874   0.00513   0.00056   0.0254  0.2129  0.3818  -0.8382   0.0000  -0.0469
   1.000   0.0988   0.00512   0.00057   0.0254  0.2104  0.3908  -0.8555   0.0000  -0.0131
   1.100   0.1103   0.00512   0.00057   0.0253  0.2074  0.3994  -0.8729   0.0000   0.0138
   1.200   0.1217   0.00512   0.00058   0.0253  0.2039  0.4065  -0.8903   0.0000   0.0357
   1.300   0.1332   0.00511   0.00058   0.0253  0.2027  0.4144  -0.9079   0.0000   0.0538
   1.400   0.1447   0.00510   0.00059   0.0253  0.2017  0.4211  -0.9256   0.0000   0.0691
   1.500   0.1562   0.00509   0.00060   0.0253  0.2002  0.4304  -0.9433   0.0000   0.0821
   1.600   0.1677   0.00509   0.00061   0.0253  0.1982  0.4380  -0.9611   0.0000   0.0933
   1.700   0.1791   0.00508   0.00061   0.0253  0.1959  0.4476  -0.9788   0.0000   0.1030
   1.800   0.1905   0.00508   0.00062   0.0253  0.1931  0.4569  -0.9967   0.0000   0.1116
   1.900   0.2020   0.00507   0.00063   0.0253  0.1911  0.4657  -1.0147   0.0000   0.1192
   2.000   0.2134   0.00506   0.00064   0.0253  0.1904  0.4765  -1.0337   0.0000   0.1260
   2.100   0.2248   0.00504   0.00065   0.0253  0.1893  0.4875  -1.0528   0.0000   0.1321
   2.200   0.2363   0.00503   0.00066   0.0252  0.1878  0.4983  -1.0720   0.0000   0.1376
   2.300   0.2477   0.00503   0.00067   0.0252  0.1859  0.5093  -1.0913   0.0000   0.1425
   2.400   0.2591   0.00503   0.00069   0.0252  0.1837  0.5207  -1.1105   0.0000   0.1470
   2.500   0.2705   0.00502   0.00070   0.0252  0.1811  0.5332  -1.1299   0.0000   0.1512
   2.600   0.2819   0.00500   0.00071   0.0252  0.1794  0.5462  -1.1493   0.0000   0.1549
   2.700   0.2933   0.00498   0.00072   0.0252  0.1788  0.5597  -1.1689   0.0000   0.1584
   2.800   0.3046   0.00496   0.00073   0.0252  0.1777  0.5742  -1.1885   0.0000   0.1616
   2.900   0.3159   0.00493   0.00074   0.0252  0.1761  0.5917  -1.2081   0.0000   0.1646
   3.000   0.3271   0.00490   0.00076   0.0252  0.1740  0.6136  -1.2276   0.0000   0.1672
   3.100   0.3382   0.00486   0.00077   0.0253  0.1716  0.6399  -1.2471   0.0000   0.1696
   3.200   0.3493   0.00481   0.00079   0.0253  0.1689  0.6678  -1.2667   0.0000   0.1719
   3.300   0.3605   0.00477   0.00080   0.0253  0.1679  0.6916  -1.2865   0.0000   0.1740
   3.400   0.3717   0.00473   0.00082   0.0253  0.1673  0.7116  -1.3064   0.0000   0.1761
   3.500   0.3830   0.00470   0.00083   0.0254  0.1665  0.7293  -1.3264   0.0000   0.1780
   3.600   0.3943   0.00469   0.00085   0.0254  0.1653  0.7439  -1.3466   0.0000   0.1798
   3.700   0.4057   0.00469   0.00087   0.0254  0.1639  0.7545  -1.3668   0.0000   0.1816
   3.800   0.4169   0.00469   0.00089   0.0254  0.1623  0.7682  -1.3870   0.0000   0.1832
   3.900   0.4283   0.00470   0.00091   0.0254  0.1604  0.7766  -1.4074   0.0000   0.1848
   4.000   0.4397   0.00470   0.00094   0.0254  0.1582  0.7866  -1.4278   0.0000   0.1863
   4.100   0.4510   0.00470   0.00096   0.0254  0.1570  0.7967  -1.4492   0.0000   0.1876
   4.200   0.4625   0.00471   0.00098   0.0254  0.1565  0.8020  -1.4711   0.0000   0.1890
   4.300   0.4739   0.00471   0.00100   0.0254  0.1560  0.8101  -1.4931   0.0000   0.1903
   4.400   0.4852   0.00471   0.00102   0.0254  0.1552  0.8195  -1.5150   0.0000   0.1914
   4.500   0.4966   0.00472   0.00104   0.0254  0.1541  0.8259  -1.5370   0.0000   0.1926
   4.600   0.5081   0.00474   0.00107   0.0254  0.1528  0.8293  -1.5592   0.0000   0.1937
   4.700   0.5194   0.00477   0.00110   0.0254  0.1514  0.8362  -1.5814   0.0000   0.1948
   4.800   0.5307   0.00478   0.00112   0.0254  0.1497  0.8445  -1.6035   0.0000   0.1957
   4.900   0.5420   0.00479   0.00115   0.0254  0.1476  0.8512  -1.6257   0.0000   0.1966
   5.000   0.5534   0.00481   0.00117   0.0254  0.1461  0.8557  -1.6481   0.0000   0.1975
   5.100   0.5648   0.00483   0.00120   0.0254  0.1457  0.8583  -1.6708   0.0000   0.1984
   5.200   0.5762   0.00486   0.00123   0.0254  0.1439  0.8634  -1.6934   0.0000   0.1992
   5.300   0.5874   0.00489   0.00126   0.0254  0.1413  0.8716  -1.7158   0.0000   0.1999
   5.400   0.5985   0.00491   0.00130   0.0254  0.1394  0.8785  -1.7382   0.0000   0.2006
   5.500   0.6097   0.00494   0.00133   0.0255  0.1368  0.8840  -1.7607   0.0000   0.2013
   5.600   0.6210   0.00496   0.00136   0.0255  0.1352  0.8876  -1.7836   0.0000   0.2019
   5.700   0.6324   0.00500   0.00139   0.0255  0.1336  0.8898  -1.8067   0.0000   0.2026
   5.800   0.6435   0.00505   0.00144   0.0255  0.1304  0.8942  -1.8295   0.0000   0.2032
   5.900   0.6544   0.00510   0.00149   0.0255  0.1265  0.9028  -1.8520   0.0000   0.2037
   6.000   0.6654   0.00511   0.00152   0.0256  0.1250  0.9099  -1.8748   0.0000   0.2041
   6.100   0.6764   0.00513   0.00155   0.0257  0.1235  0.9160  -1.8978   0.0000   0.2046
   6.200   0.6875   0.00519   0.00160   0.0257  0.1204  0.9202  -1.9208   0.0000   0.2050
   6.300   0.6987   0.00526   0.00165   0.0257  0.1167  0.9228  -1.9439   0.0000   0.2055
   6.400   0.7100   0.00529   0.00169   0.0257  0.1149  0.9250  -1.9683   0.0000   0.2061
   6.500   0.7209   0.00534   0.00174   0.0258  0.1124  0.9341  -1.9954   0.0000   0.2064
   6.600   0.7314   0.00542   0.00181   0.0259  0.1065  0.9431  -2.0886   0.0000   0.2066
   6.700   0.7422   0.00546   0.00186   0.0261  0.1043  0.9506  -2.1851   0.0000   0.2069
   6.800   0.7527   0.00557   0.00195   0.0262  0.0980  0.9559  -2.2813   0.0000   0.2072
   6.900   0.7634   0.00569   0.00204   0.0262  0.0914  0.9587  -2.3795   0.0000   0.2075
   7.000   0.7735   0.00593   0.00220   0.0263  0.0767  0.9605  -2.4747   0.0000   0.2077
   7.100   0.7801   0.00700   0.00296   0.0267  0.0113  0.9708  -2.5429   0.0000   0.2074
   7.200   0.7921   0.00713   0.00307   0.0265  0.0067  0.9772  -2.6493   0.0000   0.2081
   7.300   0.8043   0.00723   0.00316   0.0262  0.0047  0.9820  -2.7587   0.0000   0.2088
   7.400   0.8165   0.00732   0.00325   0.0260  0.0034  0.9857  -2.8689   0.0000   0.2095
   7.500   0.8285   0.00740   0.00332   0.0258  0.0027  0.9882  -2.9794   0.0000   0.2101
   7.600   0.8403   0.00749   0.00340   0.0256  0.0020  0.9900  -3.0947   0.0000   0.2107
   7.700   0.8521   0.00756   0.00347   0.0255  0.0019  0.9913  -3.2213   0.0000   0.2111
   7.800   0.8637   0.00765   0.00355   0.0254  0.0017  0.9923  -3.3477   0.0000   0.2116
   7.900   0.8753   0.00773   0.00363   0.0252  0.0015  0.9931  -3.4741   0.0000   0.2120
   8.000   0.8868   0.00781   0.00371   0.0251  0.0013  0.9939  -3.6008   0.0000   0.2124
   8.100   0.8983   0.00790   0.00379   0.0250  0.0013  0.9945  -3.7296   0.0000   0.2127
   8.200   0.9098   0.00798   0.00388   0.0249  0.0012  0.9951  -3.8606   0.0000   0.2131
   8.300   0.9213   0.00806   0.00396   0.0248  0.0012  0.9956  -3.9935   0.0000   0.2134
   8.400   0.9327   0.00815   0.00404   0.0248  0.0012  0.9960  -4.1283   0.0000   0.2137
   8.500   0.9441   0.00824   0.00413   0.0247  0.0011  0.9964  -4.2649   0.0000   0.2140
   8.600   0.9556   0.00833   0.00422   0.0246  0.0011  0.9968  -4.4032   0.0000   0.2143
   8.700   0.9670   0.00842   0.00431   0.0245  0.0011  0.9971  -4.5434   0.0000   0.2146
   8.800   0.9784   0.00851   0.00441   0.0244  0.0011  0.9974  -4.6853   0.0000   0.2149
   8.900   0.9898   0.00861   0.00451   0.0243  0.0011  0.9977  -4.8290   0.0000   0.2151
   9.000   1.0013   0.00871   0.00461   0.0242  0.0010  0.9979  -4.9744   0.0000   0.2154
   9.100   1.0128   0.00881   0.00471   0.0240  0.0010  0.9981  -5.1217   0.0000   0.2157
   9.200   1.0244   0.00891   0.00482   0.0239  0.0010  0.9983  -5.2710   0.0000   0.2160
   9.300   1.0359   0.00902   0.00493   0.0237  0.0010  0.9985  -5.4218   0.0000   0.2162
   9.400   1.0475   0.00913   0.00505   0.0236  0.0010  0.9987  -5.5741   0.0000   0.2165
   9.500   1.0590   0.00925   0.00517   0.0234  0.0010  0.9988  -5.7276   0.0000   0.2168
   9.600   1.0705   0.00937   0.00530   0.0233  0.0010  0.9990  -5.8820   0.0000   0.2170
   9.700   1.0819   0.00950   0.00543   0.0232  0.0010  0.9991  -6.0371   0.0000   0.2172
   9.800   1.0931   0.00963   0.00557   0.0231  0.0009  0.9992  -6.1924   0.0000   0.2174
   9.900   1.1043   0.00977   0.00572   0.0230  0.0009  0.9992  -6.3475   0.0000   0.2175
  10.000   1.1152   0.00992   0.00588   0.0229  0.0009  0.9993  -6.5019   0.0000   0.2177
  10.100   1.1260   0.01008   0.00606   0.0229  0.0009  0.9994  -6.6551   0.0000   0.2177
  10.200   1.1369   0.01019   0.00617   0.0229  0.0009  0.9994  -6.8231   0.0000   0.2178
  10.300   1.1477   0.01031   0.00628   0.0228  0.0009  0.9995  -6.9921   0.0000   0.2179
  10.400   1.1585   0.01042   0.00640   0.0228  0.0009  0.9995  -7.1624   0.0000   0.2179
  10.500   1.1691   0.01054   0.00651   0.0228  0.0009  0.9995  -7.3343   0.0000   0.2180
  10.600   1.1798   0.01065   0.00663   0.0228  0.0009  0.9996  -7.5080   0.0000   0.2180
  10.700   1.1904   0.01077   0.00675   0.0228  0.0009  0.9996  -7.6833   0.0000   0.2180
  10.800   1.2010   0.01089   0.00687   0.0228  0.0009  0.9996  -7.8604   0.0000   0.2180
  10.900   1.2116   0.01101   0.00699   0.0229  0.0009  0.9997  -8.0390   0.0000   0.2180
  11.000   1.2221   0.01113   0.00711   0.0229  0.0009  0.9997  -8.2191   0.0000   0.2180
  11.100   1.2325   0.01125   0.00723   0.0229  0.0009  0.9997  -8.4005   0.0000   0.2180
  11.200   1.2429   0.01137   0.00735   0.0229  0.0009  0.9997  -8.5834   0.0000   0.2180
  11.300   1.2532   0.01149   0.00748   0.0230  0.0009  0.9998  -8.7676   0.0000   0.2180
  11.400   1.2635   0.01162   0.00760   0.0230  0.0009  0.9998  -8.9533   0.0000   0.2179
  11.500   1.2738   0.01174   0.00773   0.0231  0.0009  0.9998  -9.1407   0.0000   0.2179
  11.600   1.2840   0.01187   0.00786   0.0231  0.0009  0.9998  -9.3295   0.0000   0.2178
  11.700   1.2942   0.01200   0.00799   0.0232  0.0009  0.9998  -9.5198   0.0000   0.2178
  11.800   1.3043   0.01213   0.00812   0.0233  0.0009  0.9999  -9.7113   0.0000   0.2177
  11.900   1.3144   0.01226   0.00826   0.0233  0.0009  0.9999  -9.9039   0.0000   0.2176
  12.000   1.3244   0.01240   0.00839   0.0234  0.0009  0.9999  -10.0975   0.0000   0.2175
  12.100   1.3343   0.01253   0.00853   0.0235  0.0009  0.9999  -10.2925   0.0000   0.2174
  12.200   1.3442   0.01267   0.00866   0.0236  0.0009  0.9999  -10.4890   0.0000   0.2173
  12.300   1.3541   0.01281   0.00880   0.0237  0.0009  0.9999  -10.6868   0.0000   0.2172
  12.400   1.3639   0.01295   0.00895   0.0238  0.0009  1.0000  -10.8856   0.0000   0.2171
  12.500   1.3736   0.01309   0.00909   0.0239  0.0009  1.0000  -11.0854   0.0000   0.2170
  12.600   1.3833   0.01324   0.00924   0.0240  0.0009  1.0000  -11.2867   0.0000   0.2168
  12.700   1.3930   0.01338   0.00939   0.0241  0.0009  1.0000  -11.4891   0.0000   0.2167
  12.800   1.4020   0.01353   0.00953   0.0244  0.0009  1.0000  -11.6866   0.0000   0.2165
  12.900   1.4107   0.01367   0.00968   0.0247  0.0009  1.0000  -11.8828   0.0000   0.2162
  13.000   1.4193   0.01382   0.00984   0.0250  0.0009  1.0000  -12.0796   0.0000   0.2159
  13.100   1.4279   0.01397   0.00999   0.0253  0.0008  1.0000  -12.2769   0.0000   0.2156
  13.200   1.4363   0.01413   0.01015   0.0256  0.0008  1.0000  -12.4747   0.0000   0.2153
  13.300   1.4447   0.01428   0.01030   0.0260  0.0008  1.0000  -12.6729   0.0000   0.2150
  13.400   1.4529   0.01444   0.01047   0.0263  0.0008  1.0000  -12.8714   0.0000   0.2147
  13.500   1.4611   0.01460   0.01063   0.0267  0.0008  1.0000  -13.0700   0.0000   0.2144
  13.600   1.4691   0.01476   0.01080   0.0271  0.0008  1.0000  -13.2687   0.0000   0.2140
  13.700   1.4770   0.01493   0.01097   0.0275  0.0008  1.0000  -13.4675   0.0000   0.2137
  13.800   1.4848   0.01510   0.01114   0.0279  0.0008  1.0000  -13.6660   0.0000   0.2133
  13.900   1.4924   0.01527   0.01131   0.0283  0.0008  1.0000  -13.8643   0.0000   0.2129
  14.000   1.4999   0.01544   0.01149   0.0288  0.0008  1.0000  -14.0622   0.0000   0.2125
  14.100   1.5072   0.01562   0.01167   0.0293  0.0008  1.0000  -14.2595   0.0000   0.2121
  14.200   1.5144   0.01579   0.01186   0.0298  0.0008  1.0000  -14.4561   0.0000   0.2117
  14.300   1.5214   0.01598   0.01205   0.0303  0.0008  1.0000  -14.6519   0.0000   0.2113
  14.400   1.5282   0.01616   0.01224   0.0308  0.0008  1.0000  -14.8469   0.0000   0.2108
  14.500   1.5348   0.01635   0.01244   0.0314  0.0008  1.0000  -15.0411   0.0000   0.2104
  14.600   1.5414   0.01655   0.01264   0.0319  0.0008  1.0000  -15.2349   0.0000   0.2099
  14.700   1.5479   0.01675   0.01285   0.0325  0.0008  1.0000  -15.4295   0.0000   0.2095
  14.800   1.5545   0.01696   0.01306   0.0330  0.0008  1.0000  -15.6261   0.0000   0.2091
  14.900   1.5613   0.01717   0.01328   0.0334  0.0008  1.0000  -15.8250   0.0000   0.2087
  15.000   1.5681   0.01739   0.01351   0.0339  0.0007  1.0000  -16.0248   0.0000   0.2083
  15.100   1.5747   0.01762   0.01375   0.0343  0.0007  1.0000  -16.2240   0.0000   0.2079
  15.200   1.5811   0.01786   0.01400   0.0347  0.0007  1.0000  -16.4214   0.0000   0.2075
  15.300   1.5872   0.01811   0.01425   0.0352  0.0007  1.0000  -16.6159   0.0000   0.2071
  15.400   1.5929   0.01836   0.01452   0.0358  0.0007  1.0000  -16.8067   0.0000   0.2067
  15.500   1.5983   0.01863   0.01479   0.0363  0.0007  1.0000  -16.9949   0.0000   0.2062
  15.600   1.6020   0.01892   0.01509   0.0371  0.0007  1.0000  -17.1634   0.0000   0.2056
  15.700   1.5978   0.01918   0.01537   0.0394  0.0007  1.0000  -17.2377   0.0000   0.2040
  15.800   1.5971   0.01947   0.01568   0.0409  0.0007  1.0000  -17.3527   0.0000   0.2028
  15.900   1.5977   0.01980   0.01603   0.0420  0.0007  1.0000  -17.4826   0.0000   0.2019
  16.000   1.5964   0.02023   0.01648   0.0432  0.0007  1.0000  -17.5888   0.0000   0.2010
  16.100   1.5945   0.02073   0.01700   0.0442  0.0007  1.0000  -17.6845   0.0000   0.2001
  16.200   1.5937   0.02134   0.01764   0.0448  0.0007  1.0000  -17.7897   0.0000   0.1995
  16.300   1.5914   0.02211   0.01843   0.0452  0.0006  1.0000  -17.8742   0.0000   0.1990
  16.400   1.5889   0.02303   0.01938   0.0452  0.0006  1.0000  -17.9511   0.0000   0.1988
  16.500   1.5867   0.02407   0.02046   0.0449  0.0006  1.0000  -18.0286   0.0000   0.1987
  16.600   1.5848   0.02521   0.02162   0.0445  0.0006  1.0000  -18.1092   0.0000   0.1987
  16.700   1.5830   0.02639   0.02283   0.0440  0.0006  1.0000  -18.1897   0.0000   0.1987
  16.800   1.5809   0.02762   0.02409   0.0435  0.0006  1.0000  -18.2653   0.0000   0.1988
  16.900   1.5784   0.02888   0.02538   0.0431  0.0006  1.0000  -18.3356   0.0000   0.1988
  17.000   1.5751   0.03023   0.02676   0.0426  0.0006  1.0000  -18.3941   0.0000   0.1988
  17.100   1.5713   0.03163   0.02819   0.0421  0.0006  1.0000  -18.4456   0.0000   0.1988
  17.200   1.5668   0.03313   0.02972   0.0416  0.0006  1.0000  -18.4843   0.0000   0.1988
  17.300   1.5613   0.03472   0.03134   0.0411  0.0006  1.0000  -18.5083   0.0000   0.1988
  17.400   1.5554   0.03637   0.03302   0.0405  0.0006  1.0000  -18.5249   0.0000   0.1988
  17.500   1.5487   0.03813   0.03482   0.0399  0.0006  1.0000  -18.5288   0.0000   0.1989
  17.600   1.5409   0.04006   0.03679   0.0391  0.0006  1.0000  -18.5153   0.0000   0.1990
  17.700   1.5327   0.04206   0.03883   0.0383  0.0006  1.0000  -18.4934   0.0000   0.1991
  17.800   1.5241   0.04414   0.04094   0.0375  0.0006  1.0000  -18.4634   0.0000   0.1992
  17.900   1.5145   0.04634   0.04318   0.0366  0.0006  1.0000  -18.4182   0.0000   0.1994
  18.000   1.5035   0.04873   0.04562   0.0356  0.0006  1.0000  -18.3479   0.0000   0.1997
  18.100   1.4918   0.05124   0.04817   0.0345  0.0006  1.0000  -18.2666   0.0000   0.2000
  18.200   1.4799   0.05383   0.05080   0.0334  0.0006  1.0000  -18.1783   0.0000   0.2003
  18.300   1.4675   0.05651   0.05353   0.0322  0.0006  1.0000  -18.0804   0.0000   0.2007
  18.400   1.4549   0.05929   0.05636   0.0309  0.0006  1.0000  -17.9761   0.0000   0.2012
  18.500   1.4418   0.06216   0.05927   0.0295  0.0006  1.0000  -17.8622   0.0000   0.2017
  18.600   1.4284   0.06514   0.06230   0.0281  0.0006  1.0000  -17.7395   0.0000   0.2023
  18.700   1.4146   0.06824   0.06544   0.0265  0.0006  1.0000  -17.6085   0.0000   0.2029
  18.800   1.4005   0.07143   0.06868   0.0249  0.0006  1.0000  -17.4691   0.0000   0.2036
  18.900   1.3861   0.07469   0.07200   0.0233  0.0006  1.0000  -17.3214   0.0000   0.2044
  19.000   1.3716   0.07800   0.07536   0.0216  0.0006  1.0000  -17.1683   0.0000   0.2052
  19.100   1.3578   0.08126   0.07866   0.0199  0.0006  1.0000  -17.0255   0.0000   0.2061
  19.200   1.3478   0.08399   0.08142   0.0186  0.0006  1.0000  -16.9431   0.0000   0.2067
  19.300   1.3334   0.08744   0.08492   0.0168  0.0006  1.0000  -16.7821   0.0000   0.2077
  19.400   1.3195   0.09081   0.08833   0.0150  0.0006  1.0000  -16.6276   0.0000   0.2087
  19.500   1.3114   0.09330   0.09086   0.0137  0.0006  1.0000  -16.5714   0.0000   0.2094
  19.600   1.2979   0.09673   0.09433   0.0118  0.0006  1.0000  -16.4146   0.0000   0.2105
  19.700   1.2898   0.09928   0.09691   0.0105  0.0006  1.0000  -16.3539   0.0000   0.2113
  19.800   1.2783   0.10242   0.10009   0.0088  0.0006  1.0000  -16.2258   0.0000   0.2124
  19.900   1.2716   0.10477   0.10246   0.0075  0.0006  1.0000  -16.1843   0.0000   0.2131
  20.000   1.2604   0.10790   0.10564   0.0057  0.0006  1.0000  -16.0567   0.0000   0.2143
  20.100   1.2554   0.11001   0.10777   0.0046  0.0006  1.0000  -16.0414   0.0000   0.2150
  20.200   1.2443   0.11318   0.11098   0.0027  0.0006  1.0000  -15.9083   0.0000   0.2162
  20.300   1.2398   0.11521   0.11302   0.0016  0.0006  1.0000  -15.8996   0.0000   0.2169
  20.400   1.2329   0.11768   0.11552   0.0002  0.0006  1.0000  -15.8401   0.0000   0.2179
  20.500   1.2254   0.12024   0.11810  -0.0014  0.0006  1.0000  -15.7692   0.0000   0.2189
  20.600   1.2220   0.12212   0.12000  -0.0025  0.0006  1.0000  -15.7736   0.0000   0.2196
  20.700   1.2174   0.12420   0.12211  -0.0037  0.0006  1.0000  -15.7549   0.0000   0.2204
  20.800   1.2094   0.12691   0.12485  -0.0054  0.0006  1.0000  -15.6634   0.0000   0.2216
  20.900   1.2067   0.12867   0.12663  -0.0064  0.0006  1.0000  -15.6782   0.0000   0.2222
  21.000   1.2042   0.13039   0.12835  -0.0074  0.0006  1.0000  -15.6965   0.0000   0.2229
  21.100   1.1957   0.13319   0.13119  -0.0092  0.0006  1.0000  -15.5882   0.0000   0.2242
  21.200   1.1931   0.13495   0.13296  -0.0103  0.0006  1.0000  -15.6002   0.0000   0.2250
  21.300   1.1913   0.13657   0.13460  -0.0113  0.0006  1.0000  -15.6260   0.0000   0.2256
  21.400   1.1893   0.13821   0.13625  -0.0124  0.0006  1.0000  -15.6491   0.0000   0.2262
  21.500   1.1820   0.14086   0.13894  -0.0141  0.0006  1.0000  -15.5534   0.0000   0.2276
  21.600   1.1798   0.14255   0.14064  -0.0152  0.0006  1.0000  -15.5679   0.0000   0.2283
  21.700   1.1783   0.14411   0.14221  -0.0162  0.0006  1.0000  -15.5970   0.0000   0.2290
  21.800   1.1770   0.14563   0.14374  -0.0172  0.0005  1.0000  -15.6279   0.0000   0.2296
  21.900   1.1751   0.14726   0.14538  -0.0183  0.0005  1.0000  -15.6461   0.0000   0.2303
  22.000   1.1683   0.14982   0.14798  -0.0200  0.0005  1.0000  -15.5516   0.0000   0.2317
  22.100   1.1670   0.15136   0.14953  -0.0210  0.0005  1.0000  -15.5780   0.0000   0.2324
  22.200   1.1662   0.15279   0.15096  -0.0220  0.0005  1.0000  -15.6164   0.0000   0.2330
  22.300   1.1654   0.15423   0.15242  -0.0230  0.0005  1.0000  -15.6517   0.0000   0.2336
  22.400   1.1642   0.15574   0.15394  -0.0240  0.0005  1.0000  -15.6776   0.0000   0.2343
  22.500   1.1576   0.15830   0.15653  -0.0258  0.0005  1.0000  -15.5748   0.0000   0.2358
  22.600   1.1567   0.15976   0.15800  -0.0268  0.0005  1.0000  -15.6048   0.0000   0.2365
  22.700   1.1561   0.16115   0.15940  -0.0278  0.0005  1.0000  -15.6411   0.0000   0.2371
  22.800   1.1555   0.16254   0.16080  -0.0287  0.0005  1.0000  -15.6758   0.0000   0.2377
  22.900   1.1547   0.16397   0.16225  -0.0298  0.0005  1.0000  -15.7040   0.0000   0.2384
  23.000   1.1493   0.16633   0.16463  -0.0314  0.0005  1.0000  -15.6186   0.0000   0.2398
  23.100   1.1477   0.16793   0.16624  -0.0326  0.0005  1.0000  -15.6242   0.0000   0.2406
  23.200   1.1471   0.16932   0.16764  -0.0336  0.0005  1.0000  -15.6546   0.0000   0.2413
  23.300   1.1468   0.17067   0.16900  -0.0346  0.0005  1.0000  -15.6882   0.0000   0.2419
  23.400   1.1464   0.17203   0.17038  -0.0356  0.0004  1.0000  -15.7197   0.0000   0.2426
  23.500   1.1458   0.17343   0.17179  -0.0366  0.0004  1.0000  -15.7445   0.0000   0.2432
  23.600   1.1410   0.17568   0.17407  -0.0383  0.0004  1.0000  -15.6632   0.0000   0.2447
  23.700   1.1395   0.17726   0.17567  -0.0395  0.0004  1.0000  -15.6636   0.0000   0.2455
  23.800   1.1391   0.17862   0.17703  -0.0405  0.0004  1.0000  -15.6917   0.0000   0.2462
  23.900   1.1389   0.17993   0.17836  -0.0415  0.0004  1.0000  -15.7241   0.0000   0.2468
  24.000   1.1387   0.18125   0.17968  -0.0424  0.0004  1.0000  -15.7555   0.0000   0.2475
  24.100   1.1384   0.18258   0.18103  -0.0435  0.0004  1.0000  -15.7833   0.0000   0.2481
  24.200   1.1379   0.18396   0.18242  -0.0445  0.0004  1.0000  -15.8053   0.0000   0.2489
  24.300   1.1327   0.18632   0.18481  -0.0463  0.0004  1.0000  -15.6993   0.0000   0.2505
  24.400   1.1323   0.18768   0.18618  -0.0473  0.0004  1.0000  -15.7220   0.0000   0.2512
  24.500   1.1323   0.18896   0.18747  -0.0483  0.0004  1.0000  -15.7536   0.0000   0.2518
  24.600   1.1323   0.19023   0.18875  -0.0493  0.0004  1.0000  -15.7859   0.0000   0.2525
  24.700   1.1324   0.19149   0.19002  -0.0503  0.0004  1.0000  -15.8184   0.0000   0.2531
  24.800   1.1322   0.19279   0.19133  -0.0513  0.0004  1.0000  -15.8452   0.0000   0.2538
  24.900   1.1279   0.19498   0.19356  -0.0530  0.0004  1.0000  -15.7492   0.0000   0.2553
  25.000   1.1269   0.19648   0.19507  -0.0542  0.0004  1.0000  -15.7477   0.0000   0.2562


