xflr5 v6.47

 Calculated polar for: Wing2

 1 1 Reynolds number fixed          Mach number fixed         

 xtrf =   1.000 (top)        1.000 (bottom)
 Mach =   0.000     Re =     5.000 e 6     Ncrit =   9.000

  alpha     CL        CD       CDp       Cm    Top Xtr Bot Xtr   Cpmin    Chinge    XCp    
 ------- -------- --------- --------- -------- ------- ------- -------- --------- ---------
 -20.800  -0.8665   0.17741   0.17636   0.0422  1.0000  0.0022  -10.9110   0.0000   0.2743
 -20.700  -0.8699   0.17498   0.17391   0.0406  1.0000  0.0022  -11.0735   0.0000   0.2723
 -20.600  -0.8786   0.17133   0.17023   0.0383  1.0000  0.0022  -11.4190   0.0000   0.2691
 -20.500  -0.8835   0.16869   0.16758   0.0366  1.0000  0.0023  -11.6087   0.0000   0.2669
 -20.400  -0.8941   0.16477   0.16363   0.0341  1.0000  0.0023  -11.9849   0.0000   0.2636
 -20.300  -0.9011   0.16174   0.16057   0.0322  1.0000  0.0023  -12.2220   0.0000   0.2611
 -20.200  -0.9145   0.15739   0.15618   0.0294  1.0000  0.0023  -12.6490   0.0000   0.2574
 -20.100  -0.9253   0.15363   0.15239   0.0269  1.0000  0.0023  -12.9799   0.0000   0.2544
 -20.000  -0.9400   0.14914   0.14786   0.0240  1.0000  0.0022  -13.4078   0.0000   0.2508
 -19.900  -0.9571   0.14419   0.14287   0.0207  1.0000  0.0022  -13.8890   0.0000   0.2468
 -19.800  -1.2020   0.09690   0.09502  -0.0118  1.0000  0.0020  -20.0791   0.0000   0.2139
 -19.700  -1.2877   0.08026   0.07814  -0.0231  1.0000  0.0020  -21.9512   0.0000   0.2059
 -19.600  -1.3230   0.07296   0.07072  -0.0279  1.0000  0.0020  -22.6347   0.0000   0.2030
 -19.500  -1.3485   0.06754   0.06522  -0.0314  1.0000  0.0020  -23.0846   0.0000   0.2010
 -19.400  -1.3681   0.06326   0.06087  -0.0341  1.0000  0.0020  -23.3970   0.0000   0.1996
 -19.300  -1.3844   0.05961   0.05715  -0.0363  1.0000  0.0020  -23.6329   0.0000   0.1986
 -19.200  -1.3982   0.05643   0.05391  -0.0381  1.0000  0.0019  -23.8105   0.0000   0.1978
 -19.100  -1.4103   0.05359   0.05102  -0.0397  1.0000  0.0019  -23.9473   0.0000   0.1972
 -19.000  -1.4212   0.05100   0.04838  -0.0410  1.0000  0.0019  -24.0560   0.0000   0.1967
 -18.900  -1.4309   0.04867   0.04599  -0.0421  1.0000  0.0019  -24.1362   0.0000   0.1964
 -18.800  -1.4396   0.04654   0.04382  -0.0430  1.0000  0.0019  -24.1925   0.0000   0.1961
 -18.700  -1.4476   0.04456   0.04180  -0.0438  1.0000  0.0020  -24.2326   0.0000   0.1960
 -18.600  -1.4549   0.04275   0.03994  -0.0444  1.0000  0.0020  -24.2552   0.0000   0.1960
 -18.500  -1.4616   0.04107   0.03822  -0.0448  1.0000  0.0020  -24.2642   0.0000   0.1961
 -18.400  -1.4680   0.03951   0.03662  -0.0451  1.0000  0.0020  -24.2622   0.0000   0.1962
 -18.300  -1.4738   0.03809   0.03516  -0.0453  1.0000  0.0020  -24.2483   0.0000   0.1965
 -18.200  -1.4793   0.03677   0.03381  -0.0452  1.0000  0.0020  -24.2248   0.0000   0.1968
 -18.100  -1.4843   0.03557   0.03257  -0.0451  1.0000  0.0020  -24.1901   0.0000   0.1972
 -18.000  -1.4890   0.03446   0.03142  -0.0448  1.0000  0.0020  -24.1478   0.0000   0.1977
 -17.900  -1.4933   0.03342   0.03035  -0.0444  1.0000  0.0020  -24.0973   0.0000   0.1983
 -17.800  -1.4974   0.03245   0.02935  -0.0440  1.0000  0.0020  -24.0401   0.0000   0.1989
 -17.700  -1.5013   0.03154   0.02841  -0.0434  1.0000  0.0020  -23.9780   0.0000   0.1996
 -17.600  -1.5046   0.03071   0.02755  -0.0427  1.0000  0.0020  -23.9055   0.0000   0.2003
 -17.500  -1.5075   0.02994   0.02674  -0.0420  1.0000  0.0020  -23.8252   0.0000   0.2010
 -17.400  -1.5107   0.02919   0.02597  -0.0411  1.0000  0.0020  -23.7480   0.0000   0.2018
 -17.300  -1.5129   0.02852   0.02527  -0.0403  1.0000  0.0020  -23.6545   0.0000   0.2026
 -17.200  -1.5156   0.02787   0.02459  -0.0393  1.0000  0.0020  -23.5664   0.0000   0.2035
 -17.100  -1.5173   0.02729   0.02398  -0.0383  1.0000  0.0020  -23.4638   0.0000   0.2044
 -17.000  -1.5196   0.02672   0.02338  -0.0372  1.0000  0.0020  -23.3682   0.0000   0.2053
 -16.900  -1.5207   0.02620   0.02284  -0.0362  1.0000  0.0020  -23.2534   0.0000   0.2062
 -16.800  -1.5226   0.02569   0.02230  -0.0350  1.0000  0.0020  -23.1515   0.0000   0.2072
 -16.700  -1.5233   0.02523   0.02181  -0.0338  1.0000  0.0020  -23.0301   0.0000   0.2081
 -16.600  -1.5241   0.02478   0.02135  -0.0326  1.0000  0.0020  -22.9104   0.0000   0.2091
 -16.500  -1.5256   0.02436   0.02089  -0.0313  1.0000  0.0020  -22.7988   0.0000   0.2102
 -16.400  -1.5254   0.02398   0.02049  -0.0301  1.0000  0.0020  -22.6639   0.0000   0.2112
 -16.300  -1.5256   0.02362   0.02011  -0.0288  1.0000  0.0020  -22.5337   0.0000   0.2122
 -16.200  -1.5266   0.02326   0.01973  -0.0273  1.0000  0.0020  -22.4151   0.0000   0.2133
 -16.100  -1.5263   0.02293   0.01937  -0.0259  1.0000  0.0021  -22.2773   0.0000   0.2144
 -16.000  -1.5257   0.02261   0.01903  -0.0246  1.0000  0.0021  -22.1339   0.0000   0.2154
 -15.900  -1.5257   0.02230   0.01870  -0.0231  1.0000  0.0021  -22.0000   0.0000   0.2165
 -15.800  -1.5265   0.02201   0.01838  -0.0214  1.0000  0.0021  -21.8762   0.0000   0.2178
 -15.700  -1.5254   0.02173   0.01809  -0.0200  1.0000  0.0021  -21.7274   0.0000   0.2189
 -15.600  -1.5237   0.02147   0.01781  -0.0186  1.0000  0.0021  -21.5702   0.0000   0.2199
 -15.500  -1.5223   0.02123   0.01755  -0.0172  1.0000  0.0021  -21.4164   0.0000   0.2210
 -15.400  -1.5215   0.02100   0.01730  -0.0156  1.0000  0.0021  -21.2706   0.0000   0.2222
 -15.300  -1.5220   0.02079   0.01707  -0.0137  1.0000  0.0021  -21.1418   0.0000   0.2236
 -15.200  -1.5246   0.02061   0.01687  -0.0113  1.0000  0.0021  -21.0401   0.0000   0.2253
 -15.100  -1.5239   0.02041   0.01665  -0.0096  1.0000  0.0021  -20.8957   0.0000   0.2266
 -15.000  -1.5194   0.02018   0.01640  -0.0086  1.0000  0.0021  -20.7041   0.0000   0.2274
 -14.900  -1.5146   0.01995   0.01615  -0.0077  1.0000  0.0021  -20.5076   0.0000   0.2282
 -14.800  -1.5094   0.01972   0.01591  -0.0068  1.0000  0.0021  -20.3075   0.0000   0.2289
 -14.700  -1.5039   0.01950   0.01567  -0.0059  1.0000  0.0021  -20.1042   0.0000   0.2296
 -14.600  -1.4981   0.01928   0.01544  -0.0051  1.0000  0.0021  -19.8981   0.0000   0.2303
 -14.500  -1.4921   0.01906   0.01520  -0.0043  1.0000  0.0021  -19.6897   0.0000   0.2310
 -14.400  -1.4858   0.01885   0.01498  -0.0036  1.0000  0.0021  -19.4793   0.0000   0.2316
 -14.300  -1.4807   0.01854   0.01463  -0.0027  1.0000  0.0021  -19.2940   0.0000   0.2324
 -14.200  -1.4753   0.01823   0.01430  -0.0018  1.0000  0.0022  -19.1048   0.0000   0.2331
 -14.100  -1.4694   0.01795   0.01399  -0.0010  1.0000  0.0022  -18.9094   0.0000   0.2338
 -14.000  -1.4632   0.01768   0.01369  -0.0003  1.0000  0.0023  -18.7092   0.0000   0.2345
 -13.900  -1.4566   0.01742   0.01342   0.0004  1.0000  0.0024  -18.5049   0.0000   0.2351
 -13.800  -1.4497   0.01718   0.01315   0.0011  1.0000  0.0024  -18.2971   0.0000   0.2358
 -13.700  -1.4426   0.01694   0.01290   0.0017  1.0000  0.0025  -18.0866   0.0000   0.2363
 -13.600  -1.4352   0.01672   0.01266   0.0023  1.0000  0.0025  -17.8740   0.0000   0.2369
 -13.500  -1.4277   0.01650   0.01243   0.0029  1.0000  0.0025  -17.6596   0.0000   0.2375
 -13.400  -1.4200   0.01628   0.01220   0.0035  1.0000  0.0026  -17.4440   0.0000   0.2380
 -13.300  -1.4122   0.01608   0.01198   0.0040  1.0000  0.0026  -17.2273   0.0000   0.2386
 -13.200  -1.4042   0.01588   0.01177   0.0045  1.0000  0.0027  -17.0098   0.0000   0.2391
 -13.100  -1.3960   0.01568   0.01156   0.0050  1.0000  0.0027  -16.7916   0.0000   0.2396
 -13.000  -1.3878   0.01549   0.01136   0.0055  1.0000  0.0028  -16.5729   0.0000   0.2402
 -12.900  -1.3794   0.01530   0.01117   0.0059  1.0000  0.0028  -16.3541   0.0000   0.2407
 -12.800  -1.3709   0.01512   0.01098   0.0064  1.0000  0.0028  -16.1354   0.0000   0.2412
 -12.700  -1.3624   0.01494   0.01079   0.0068  1.0000  0.0029  -15.9167   0.0000   0.2417
 -12.600  -1.3537   0.01477   0.01060   0.0072  1.0000  0.0029  -15.6983   0.0000   0.2421
 -12.500  -1.3449   0.01460   0.01042   0.0076  1.0000  0.0029  -15.4801   0.0000   0.2426
 -12.400  -1.3361   0.01443   0.01024   0.0080  1.0000  0.0030  -15.2623   0.0000   0.2431
 -12.300  -1.3272   0.01426   0.01007   0.0084  1.0000  0.0030  -15.0450   0.0000   0.2436
 -12.200  -1.3182   0.01410   0.00990   0.0088  1.0000  0.0030  -14.8282   0.0000   0.2441
 -12.100  -1.3091   0.01394   0.00973   0.0091  1.0000  0.0031  -14.6119   0.0000   0.2445
 -12.000  -1.2999   0.01378   0.00957   0.0095  1.0000  0.0031  -14.3963   0.0000   0.2450
 -11.900  -1.2907   0.01363   0.00941   0.0098  1.0000  0.0031  -14.1812   0.0000   0.2455
 -11.800  -1.2814   0.01348   0.00925   0.0102  1.0000  0.0032  -13.9667   0.0000   0.2459
 -11.700  -1.2721   0.01334   0.00909   0.0105  1.0000  0.0032  -13.7530   0.0000   0.2464
 -11.600  -1.2627   0.01319   0.00894   0.0108  1.0000  0.0032  -13.5401   0.0000   0.2468
 -11.500  -1.2532   0.01305   0.00879   0.0111  1.0000  0.0032  -13.3280   0.0000   0.2473
 -11.400  -1.2437   0.01291   0.00865   0.0114  1.0000  0.0033  -13.1167   0.0000   0.2477
 -11.300  -1.2341   0.01277   0.00850   0.0117  1.0000  0.0033  -12.9063   0.0000   0.2482
 -11.200  -1.2244   0.01264   0.00836   0.0120  1.0000  0.0033  -12.6968   0.0000   0.2486
 -11.100  -1.2147   0.01251   0.00822   0.0123  1.0000  0.0033  -12.4883   0.0000   0.2491
 -11.000  -1.2050   0.01238   0.00809   0.0126  1.0000  0.0033  -12.2807   0.0000   0.2495
 -10.900  -1.1952   0.01225   0.00796   0.0128  1.0000  0.0033  -12.0742   0.0000   0.2500
 -10.800  -1.1854   0.01213   0.00782   0.0131  1.0000  0.0033  -11.8687   0.0000   0.2504
 -10.700  -1.1755   0.01200   0.00770   0.0134  1.0000  0.0034  -11.6644   0.0000   0.2508
 -10.600  -1.1657   0.01187   0.00755   0.0136  1.0000  0.0034  -11.4639   0.0000   0.2513
 -10.500  -1.1563   0.01169   0.00736   0.0140  1.0000  0.0035  -11.2728   0.0000   0.2518
 -10.400  -1.1466   0.01152   0.00718   0.0143  1.0000  0.0036  -11.0801   0.0000   0.2523
 -10.300  -1.1369   0.01137   0.00702   0.0145  1.0000  0.0038  -10.8868   0.0000   0.2528
 -10.200  -1.1271   0.01122   0.00687   0.0148  1.0000  0.0039  -10.6932   0.0000   0.2532
 -10.100  -1.1172   0.01108   0.00672   0.0151  1.0000  0.0040  -10.4996   0.0000   0.2537
 -10.000  -1.1072   0.01095   0.00659   0.0153  1.0000  0.0041  -10.3062   0.0000   0.2542
  -9.900  -1.0972   0.01082   0.00646   0.0156  1.0000  0.0042  -10.1137   0.0000   0.2546
  -9.800  -1.0871   0.01070   0.00634   0.0158  1.0000  0.0043  -9.9222   0.0000   0.2551
  -9.700  -1.0769   0.01058   0.00622   0.0160  1.0000  0.0044  -9.7318   0.0000   0.2556
  -9.600  -1.0664   0.01047   0.00610   0.0161  0.9935  0.0045  -9.5391   0.0000   0.2560
  -9.500  -1.0576   0.01082   0.00596   0.0167  0.7641  0.0045  -9.3673   0.0000   0.2567
  -9.400  -1.0476   0.01078   0.00584   0.0169  0.7337  0.0046  -9.1934   0.0000   0.2572
  -9.300  -1.0374   0.01071   0.00572   0.0171  0.7150  0.0047  -9.0194   0.0000   0.2577
  -9.200  -1.0271   0.01063   0.00562   0.0173  0.7025  0.0047  -8.8457   0.0000   0.2581
  -9.100  -1.0168   0.01056   0.00551   0.0175  0.6925  0.0048  -8.6729   0.0000   0.2586
  -9.000  -1.0064   0.01048   0.00541   0.0177  0.6841  0.0048  -8.5011   0.0000   0.2591
  -8.900  -0.9959   0.01040   0.00531   0.0179  0.6769  0.0049  -8.3303   0.0000   0.2596
  -8.800  -0.9855   0.01032   0.00521   0.0180  0.6711  0.0049  -8.1606   0.0000   0.2600
  -8.700  -0.9750   0.01025   0.00512   0.0182  0.6648  0.0049  -7.9921   0.0000   0.2605
  -8.600  -0.9646   0.01014   0.00499   0.0184  0.6602  0.0051  -7.8296   0.0000   0.2610
  -8.500  -0.9542   0.01002   0.00486   0.0186  0.6558  0.0053  -7.6691   0.0000   0.2615
  -8.400  -0.9438   0.00992   0.00475   0.0188  0.6510  0.0056  -7.5084   0.0000   0.2621
  -8.300  -0.9334   0.00983   0.00464   0.0190  0.6465  0.0058  -7.3477   0.0000   0.2626
  -8.200  -0.9229   0.00973   0.00454   0.0191  0.6432  0.0060  -7.1875   0.0000   0.2631
  -8.100  -0.9123   0.00964   0.00444   0.0193  0.6393  0.0061  -7.0284   0.0000   0.2636
  -8.000  -0.9017   0.00956   0.00434   0.0194  0.6349  0.0063  -6.8704   0.0000   0.2641
  -7.900  -0.8910   0.00948   0.00425   0.0196  0.6313  0.0065  -6.7135   0.0000   0.2647
  -7.800  -0.8803   0.00940   0.00417   0.0197  0.6282  0.0066  -6.5576   0.0000   0.2652
  -7.700  -0.8696   0.00933   0.00408   0.0199  0.6245  0.0067  -6.4028   0.0000   0.2657
  -7.600  -0.8588   0.00926   0.00400   0.0200  0.6204  0.0068  -6.2492   0.0000   0.2662
  -7.500  -0.8480   0.00920   0.00393   0.0201  0.6170  0.0068  -6.0987   0.0000   0.2668
  -7.400  -0.8374   0.00910   0.00382   0.0203  0.6140  0.0072  -5.9621   0.0000   0.2674
  -7.300  -0.8267   0.00901   0.00373   0.0204  0.6102  0.0077  -5.8256   0.0000   0.2679
  -7.200  -0.8160   0.00893   0.00364   0.0206  0.6060  0.0081  -5.6891   0.0000   0.2685
  -7.100  -0.8053   0.00885   0.00355   0.0207  0.6027  0.0084  -5.5531   0.0000   0.2691
  -7.000  -0.7944   0.00877   0.00348   0.0208  0.5994  0.0087  -5.4179   0.0000   0.2697
  -6.900  -0.7836   0.00871   0.00340   0.0209  0.5952  0.0089  -5.2838   0.0000   0.2703
  -6.800  -0.7727   0.00865   0.00333   0.0210  0.5907  0.0091  -5.1506   0.0000   0.2709
  -6.700  -0.7618   0.00858   0.00325   0.0212  0.5874  0.0093  -5.0198   0.0000   0.2716
  -6.600  -0.7510   0.00850   0.00316   0.0213  0.5832  0.0100  -4.8920   0.0000   0.2722
  -6.500  -0.7402   0.00843   0.00308   0.0214  0.5784  0.0106  -4.7644   0.0000   0.2729
  -6.400  -0.7293   0.00836   0.00301   0.0215  0.5746  0.0110  -4.6373   0.0000   0.2735
  -6.300  -0.7183   0.00829   0.00294   0.0216  0.5699  0.0114  -4.5112   0.0000   0.2742
  -6.200  -0.7073   0.00825   0.00288   0.0217  0.5647  0.0117  -4.3861   0.0000   0.2749
  -6.100  -0.6964   0.00818   0.00280   0.0218  0.5607  0.0123  -4.2634   0.0000   0.2756
  -6.000  -0.6855   0.00811   0.00273   0.0220  0.5556  0.0132  -4.1425   0.0000   0.2764
  -5.900  -0.6746   0.00805   0.00265   0.0221  0.5502  0.0139  -4.0222   0.0000   0.2771
  -5.800  -0.6636   0.00799   0.00259   0.0222  0.5458  0.0145  -3.9026   0.0000   0.2779
  -5.700  -0.6525   0.00794   0.00253   0.0222  0.5403  0.0149  -3.7876   0.0000   0.2787
  -5.600  -0.6416   0.00788   0.00246   0.0223  0.5354  0.0161  -3.6812   0.0000   0.2795
  -5.500  -0.6306   0.00781   0.00239   0.0224  0.5303  0.0171  -3.5752   0.0000   0.2803
  -5.400  -0.6196   0.00777   0.00234   0.0225  0.5243  0.0178  -3.4699   0.0000   0.2812
  -5.300  -0.6085   0.00772   0.00228   0.0226  0.5197  0.0186  -3.3656   0.0000   0.2820
  -5.200  -0.5975   0.00765   0.00221   0.0227  0.5141  0.0201  -3.2634   0.0000   0.2829
  -5.100  -0.5865   0.00760   0.00215   0.0228  0.5086  0.0214  -3.1617   0.0000   0.2839
  -5.000  -0.5754   0.00755   0.00210   0.0229  0.5035  0.0225  -3.0608   0.0000   0.2848
  -4.900  -0.5644   0.00750   0.00203   0.0230  0.4972  0.0246  -2.9621   0.0000   0.2858
  -4.800  -0.5533   0.00744   0.00198   0.0230  0.4925  0.0260  -2.8636   0.0000   0.2868
  -4.700  -0.5422   0.00740   0.00193   0.0231  0.4867  0.0277  -2.7666   0.0000   0.2879
  -4.600  -0.5311   0.00734   0.00187   0.0232  0.4811  0.0297  -2.6710   0.0000   0.2890
  -4.500  -0.5200   0.00730   0.00183   0.0233  0.4757  0.0311  -2.5758   0.0000   0.2901
  -4.300  -0.4978   0.00720   0.00172   0.0234  0.4647  0.0360  -2.3901   0.0000   0.2926
  -4.200  -0.4867   0.00715   0.00167   0.0235  0.4587  0.0392  -2.3056   0.0000   0.2938
  -4.100  -0.4756   0.00711   0.00162   0.0236  0.4531  0.0417  -2.2231   0.0000   0.2952
  -4.000  -0.4645   0.00705   0.00157   0.0236  0.4476  0.0452  -2.1419   0.0000   0.2966
  -3.900  -0.4533   0.00702   0.00153   0.0237  0.4411  0.0478  -2.0613   0.0000   0.2980
  -3.800  -0.4422   0.00697   0.00148   0.0238  0.4365  0.0515  -1.9819   0.0000   0.2995
  -3.700  -0.4310   0.00693   0.00144   0.0238  0.4305  0.0547  -1.9033   0.0000   0.3011
  -3.600  -0.4199   0.00688   0.00140   0.0239  0.4253  0.0595  -1.8270   0.0000   0.3028
  -3.500  -0.4087   0.00684   0.00136   0.0240  0.4196  0.0627  -1.7570   0.0000   0.3046
  -3.400  -0.3976   0.00680   0.00132   0.0240  0.4133  0.0674  -1.6885   0.0000   0.3064
  -3.300  -0.3863   0.00677   0.00129   0.0241  0.4086  0.0705  -1.6201   0.0000   0.3083
  -3.200  -0.3752   0.00672   0.00125   0.0241  0.4027  0.0760  -1.5532   0.0000   0.3104
  -3.100  -0.3639   0.00669   0.00122   0.0242  0.3978  0.0796  -1.4865   0.0000   0.3126
  -3.000  -0.3528   0.00665   0.00118   0.0242  0.3925  0.0845  -1.4264   0.0000   0.3149
  -2.900  -0.3415   0.00663   0.00116   0.0243  0.3861  0.0880  -1.3671   0.0000   0.3173
  -2.800  -0.3303   0.00658   0.00112   0.0243  0.3817  0.0940  -1.3089   0.0000   0.3199
  -2.700  -0.3190   0.00657   0.00110   0.0244  0.3759  0.0978  -1.2519   0.0000   0.3227
  -2.600  -0.3078   0.00652   0.00107   0.0244  0.3710  0.1039  -1.2000   0.0000   0.3257
  -2.500  -0.2965   0.00649   0.00104   0.0244  0.3667  0.1093  -1.1485   0.0000   0.3289
  -2.400  -0.2853   0.00646   0.00101   0.0245  0.3610  0.1152  -1.0985   0.0000   0.3324
  -2.300  -0.2741   0.00642   0.00099   0.0245  0.3566  0.1221  -1.0526   0.0000   0.3361
  -2.200  -0.2628   0.00639   0.00096   0.0246  0.3516  0.1283  -1.0071   0.0000   0.3401
  -2.000  -0.2404   0.00631   0.00091   0.0247  0.3421  0.1456  -0.9239   0.0000   0.3493
  -1.900  -0.2292   0.00627   0.00088   0.0247  0.3377  0.1543  -0.8846   0.0000   0.3546
  -1.800  -0.2180   0.00623   0.00086   0.0247  0.3326  0.1639  -0.8480   0.0000   0.3604
  -1.700  -0.2068   0.00618   0.00084   0.0248  0.3294  0.1745  -0.8123   0.0000   0.3668
  -1.600  -0.1956   0.00613   0.00082   0.0248  0.3252  0.1863  -0.7792   0.0000   0.3739
  -1.500  -0.1845   0.00609   0.00079   0.0249  0.3198  0.1990  -0.7470   0.0000   0.3819
  -1.300  -0.1622   0.00598   0.00075   0.0249  0.3125  0.2270  -0.6877   0.0000   0.4012
  -1.200  -0.1511   0.00593   0.00073   0.0250  0.3079  0.2421  -0.6603   0.0000   0.4129
  -1.100  -0.1399   0.00587   0.00071   0.0250  0.3043  0.2581  -0.6336   0.0000   0.4265
  -1.000  -0.1288   0.00581   0.00069   0.0251  0.3017  0.2742  -0.6086   0.0000   0.4425
  -0.900  -0.1176   0.00576   0.00068   0.0251  0.2981  0.2899  -0.5839   0.0000   0.4615
  -0.800  -0.1065   0.00572   0.00066   0.0252  0.2934  0.3056  -0.5720   0.0000   0.4844
  -0.700  -0.0953   0.00567   0.00065   0.0252  0.2904  0.3202  -0.5864   0.0000   0.5128
  -0.600  -0.0840   0.00563   0.00064   0.0252  0.2871  0.3341  -0.6008   0.0000   0.5489
  -0.500  -0.0728   0.00560   0.00063   0.0252  0.2830  0.3474  -0.6152   0.0000   0.5960
  -0.400  -0.0616   0.00557   0.00062   0.0253  0.2786  0.3596  -0.6297   0.0000   0.6604
  -0.300  -0.0502   0.00554   0.00062   0.0253  0.2765  0.3712  -0.6444   0.0000   0.7542
  -0.200  -0.0389   0.00551   0.00061   0.0253  0.2738  0.3821  -0.6596   0.0000   0.9028
  -0.100  -0.0276   0.00550   0.00061   0.0253  0.2705  0.3925  -0.6752   0.0000   1.1736
   0.000  -0.0163   0.00548   0.00061   0.0253  0.2664  0.4033  -0.6908   0.0000   1.8197
   0.100  -0.0049   0.00546   0.00061   0.0254  0.2643  0.4132  -0.7066   0.0000   5.4899
   0.200   0.0065   0.00544   0.00061   0.0254  0.2617  0.4226  -0.7225   0.0000  -3.6766
   0.300   0.0179   0.00543   0.00061   0.0254  0.2582  0.4323  -0.7383   0.0000  -1.1875
   0.400   0.0292   0.00543   0.00061   0.0254  0.2539  0.4403  -0.7542   0.0000  -0.6301
   0.500   0.0407   0.00542   0.00061   0.0254  0.2515  0.4491  -0.7703   0.0000  -0.3842
   0.600   0.0520   0.00540   0.00061   0.0254  0.2491  0.4590  -0.7864   0.0000  -0.2467
   0.700   0.0634   0.00539   0.00062   0.0254  0.2462  0.4676  -0.8025   0.0000  -0.1583
   0.800   0.0748   0.00539   0.00062   0.0254  0.2429  0.4761  -0.8196   0.0000  -0.0968
   0.900   0.0862   0.00538   0.00063   0.0254  0.2399  0.4850  -0.8368   0.0000  -0.0516
   1.000   0.0977   0.00537   0.00063   0.0254  0.2383  0.4939  -0.8542   0.0000  -0.0168
   1.100   0.1090   0.00535   0.00064   0.0254  0.2362  0.5041  -0.8715   0.0000   0.0105
   1.200   0.1204   0.00534   0.00064   0.0254  0.2336  0.5146  -0.8889   0.0000   0.0326
   1.300   0.1317   0.00534   0.00065   0.0254  0.2305  0.5251  -0.9063   0.0000   0.0509
   1.400   0.1431   0.00533   0.00066   0.0254  0.2275  0.5368  -0.9238   0.0000   0.0663
   1.500   0.1544   0.00530   0.00067   0.0254  0.2260  0.5498  -0.9414   0.0000   0.0794
   1.600   0.1657   0.00528   0.00067   0.0255  0.2238  0.5642  -0.9590   0.0000   0.0906
   1.700   0.1769   0.00525   0.00068   0.0255  0.2210  0.5813  -0.9765   0.0000   0.1002
   1.800   0.1880   0.00522   0.00069   0.0255  0.2176  0.6027  -0.9941   0.0000   0.1086
   1.900   0.1990   0.00515   0.00070   0.0256  0.2150  0.6316  -1.0115   0.0000   0.1158
   2.000   0.2098   0.00506   0.00070   0.0257  0.2136  0.6658  -1.0295   0.0000   0.1221
   2.100   0.2208   0.00498   0.00071   0.0257  0.2118  0.6968  -1.0481   0.0000   0.1278
   2.200   0.2317   0.00493   0.00072   0.0258  0.2097  0.7225  -1.0668   0.0000   0.1330
   2.300   0.2427   0.00490   0.00074   0.0259  0.2072  0.7429  -1.0857   0.0000   0.1378
   2.400   0.2539   0.00489   0.00076   0.0259  0.2042  0.7589  -1.1047   0.0000   0.1423
   2.500   0.2651   0.00486   0.00077   0.0260  0.2026  0.7743  -1.1239   0.0000   0.1464
   2.600   0.2763   0.00484   0.00079   0.0260  0.2014  0.7870  -1.1432   0.0000   0.1502
   2.700   0.2875   0.00483   0.00081   0.0261  0.1998  0.7986  -1.1625   0.0000   0.1537
   2.800   0.2989   0.00484   0.00083   0.0261  0.1979  0.8074  -1.1820   0.0000   0.1570
   2.900   0.3099   0.00483   0.00085   0.0262  0.1956  0.8190  -1.2014   0.0000   0.1599
   3.000   0.3212   0.00485   0.00087   0.0262  0.1929  0.8267  -1.2210   0.0000   0.1628
   3.100   0.3326   0.00486   0.00089   0.0262  0.1910  0.8329  -1.2407   0.0000   0.1655
   3.200   0.3438   0.00485   0.00091   0.0263  0.1901  0.8433  -1.2604   0.0000   0.1678
   3.300   0.3550   0.00485   0.00093   0.0263  0.1888  0.8511  -1.2802   0.0000   0.1701
   3.400   0.3664   0.00487   0.00095   0.0263  0.1871  0.8563  -1.3002   0.0000   0.1723
   3.500   0.3778   0.00490   0.00098   0.0263  0.1852  0.8603  -1.3203   0.0000   0.1744
   3.600   0.3888   0.00491   0.00100   0.0264  0.1828  0.8696  -1.3401   0.0000   0.1762
   3.700   0.3999   0.00492   0.00103   0.0265  0.1800  0.8771  -1.3599   0.0000   0.1778
   3.800   0.4111   0.00493   0.00105   0.0265  0.1790  0.8829  -1.3801   0.0000   0.1795
   3.900   0.4225   0.00495   0.00108   0.0266  0.1779  0.8871  -1.4005   0.0000   0.1811
   4.000   0.4339   0.00497   0.00110   0.0266  0.1764  0.8899  -1.4210   0.0000   0.1827
   4.100   0.4451   0.00499   0.00113   0.0266  0.1747  0.8957  -1.4418   0.0000   0.1841
   4.200   0.4560   0.00501   0.00116   0.0267  0.1729  0.9037  -1.4629   0.0000   0.1852
   4.300   0.4670   0.00503   0.00119   0.0268  0.1708  0.9100  -1.4843   0.0000   0.1863
   4.400   0.4781   0.00506   0.00122   0.0269  0.1685  0.9152  -1.5058   0.0000   0.1875
   4.500   0.4894   0.00507   0.00125   0.0269  0.1677  0.9193  -1.5278   0.0000   0.1887
   4.600   0.5008   0.00510   0.00127   0.0269  0.1670  0.9221  -1.5498   0.0000   0.1899
   4.700   0.5122   0.00512   0.00130   0.0269  0.1659  0.9241  -1.5720   0.0000   0.1910
   4.800   0.5235   0.00515   0.00133   0.0269  0.1647  0.9295  -1.5942   0.0000   0.1920
   4.900   0.5346   0.00517   0.00137   0.0270  0.1633  0.9369  -1.6160   0.0000   0.1929
   5.000   0.5456   0.00520   0.00140   0.0271  0.1617  0.9429  -1.6380   0.0000   0.1937
   5.100   0.5567   0.00524   0.00144   0.0272  0.1598  0.9481  -1.6601   0.0000   0.1945
   5.200   0.5679   0.00527   0.00148   0.0272  0.1577  0.9524  -1.6823   0.0000   0.1953
   5.300   0.5791   0.00530   0.00151   0.0272  0.1568  0.9558  -1.7048   0.0000   0.1961
   5.400   0.5904   0.00533   0.00154   0.0273  0.1560  0.9583  -1.7274   0.0000   0.1969
   5.500   0.6016   0.00537   0.00158   0.0273  0.1543  0.9601  -1.7500   0.0000   0.1976
   5.600   0.6132   0.00542   0.00162   0.0272  0.1517  0.9632  -1.7731   0.0000   0.1985
   5.700   0.6258   0.00548   0.00166   0.0269  0.1492  0.9684  -1.7973   0.0000   0.1998
   5.800   0.6386   0.00553   0.00170   0.0266  0.1462  0.9728  -1.8218   0.0000   0.2011
   5.900   0.6515   0.00556   0.00174   0.0262  0.1451  0.9763  -1.8468   0.0000   0.2024
   6.000   0.6644   0.00561   0.00177   0.0259  0.1430  0.9793  -1.8717   0.0000   0.2037
   6.100   0.6770   0.00567   0.00182   0.0256  0.1403  0.9818  -1.8964   0.0000   0.2048
   6.200   0.6896   0.00573   0.00187   0.0253  0.1376  0.9839  -1.9210   0.0000   0.2058
   6.300   0.7021   0.00578   0.00191   0.0250  0.1353  0.9857  -1.9461   0.0000   0.2068
   6.400   0.7146   0.00583   0.00195   0.0247  0.1337  0.9872  -1.9723   0.0000   0.2077
   6.500   0.7269   0.00589   0.00200   0.0245  0.1311  0.9886  -2.0169   0.0000   0.2086
   6.600   0.7392   0.00597   0.00206   0.0242  0.1276  0.9898  -2.1181   0.0000   0.2094
   6.700   0.7515   0.00603   0.00211   0.0240  0.1247  0.9909  -2.2212   0.0000   0.2101
   6.800   0.7637   0.00610   0.00216   0.0237  0.1218  0.9918  -2.3256   0.0000   0.2109
   6.900   0.7757   0.00620   0.00223   0.0235  0.1170  0.9927  -2.4300   0.0000   0.2115
   7.000   0.7879   0.00627   0.00229   0.0233  0.1142  0.9935  -2.5370   0.0000   0.2122
   7.100   0.7999   0.00638   0.00236   0.0231  0.1092  0.9942  -2.6438   0.0000   0.2128
   7.200   0.8118   0.00649   0.00245   0.0228  0.1030  0.9948  -2.7514   0.0000   0.2134
   7.300   0.8234   0.00669   0.00258   0.0227  0.0927  0.9954  -2.8574   0.0000   0.2139
   7.400   0.8317   0.00756   0.00319   0.0227  0.0454  0.9962  -2.9410   0.0000   0.2141
   7.500   0.8407   0.00832   0.00376   0.0227  0.0080  0.9968  -3.0271   0.0000   0.2143
   7.600   0.8525   0.00846   0.00389   0.0225  0.0050  0.9971  -3.1352   0.0000   0.2148
   7.700   0.8645   0.00859   0.00401   0.0223  0.0035  0.9975  -3.2567   0.0000   0.2153
   7.800   0.8765   0.00870   0.00411   0.0220  0.0028  0.9978  -3.3835   0.0000   0.2158
   8.000   0.9008   0.00892   0.00434   0.0216  0.0020  0.9983  -3.6289   0.0000   0.2168
   8.100   0.9131   0.00901   0.00443   0.0213  0.0020  0.9985  -3.7648   0.0000   0.2173
   8.200   0.9253   0.00911   0.00452   0.0210  0.0019  0.9987  -3.9021   0.0000   0.2178
   8.300   0.9375   0.00921   0.00462   0.0207  0.0019  0.9988  -4.0406   0.0000   0.2183
   8.400   0.9496   0.00931   0.00472   0.0205  0.0019  0.9990  -4.1802   0.0000   0.2187
   8.500   0.9616   0.00941   0.00483   0.0203  0.0018  0.9991  -4.3211   0.0000   0.2191
   8.600   0.9736   0.00951   0.00494   0.0200  0.0018  0.9992  -4.4630   0.0000   0.2195
   8.700   0.9854   0.00962   0.00504   0.0198  0.0018  0.9994  -4.6061   0.0000   0.2198
   8.800   0.9971   0.00973   0.00516   0.0197  0.0017  0.9995  -4.7502   0.0000   0.2201
   8.900   1.0086   0.00984   0.00527   0.0195  0.0017  0.9995  -4.8953   0.0000   0.2203
   9.000   1.0201   0.00995   0.00539   0.0194  0.0017  0.9996  -5.0414   0.0000   0.2205
   9.100   1.0314   0.01007   0.00551   0.0193  0.0017  0.9997  -5.1888   0.0000   0.2207
   9.200   1.0428   0.01019   0.00563   0.0192  0.0016  0.9998  -5.3375   0.0000   0.2209
   9.300   1.0540   0.01031   0.00575   0.0191  0.0016  0.9998  -5.4877   0.0000   0.2211
   9.400   1.0652   0.01043   0.00588   0.0190  0.0016  0.9999  -5.6393   0.0000   0.2212
   9.500   1.0764   0.01055   0.00601   0.0189  0.0016  0.9999  -5.7924   0.0000   0.2213
   9.600   1.0876   0.01068   0.00614   0.0188  0.0016  1.0000  -5.9470   0.0000   0.2215
   9.700   1.0974   0.01080   0.00627   0.0190  0.0015  1.0000  -6.0938   0.0000   0.2213
   9.800   1.1069   0.01093   0.00640   0.0193  0.0015  1.0000  -6.2402   0.0000   0.2211
   9.900   1.1164   0.01106   0.00654   0.0195  0.0015  1.0000  -6.3881   0.0000   0.2209
  10.000   1.1259   0.01119   0.00668   0.0197  0.0015  1.0000  -6.5374   0.0000   0.2207
  10.100   1.1354   0.01133   0.00682   0.0200  0.0015  1.0000  -6.6880   0.0000   0.2205
  10.200   1.1449   0.01146   0.00696   0.0202  0.0015  1.0000  -6.8399   0.0000   0.2203
  10.300   1.1543   0.01160   0.00711   0.0205  0.0014  1.0000  -6.9930   0.0000   0.2200
  10.400   1.1637   0.01175   0.00726   0.0207  0.0014  1.0000  -7.1472   0.0000   0.2198
  10.500   1.1730   0.01189   0.00741   0.0210  0.0014  1.0000  -7.3025   0.0000   0.2196
  10.600   1.1823   0.01204   0.00757   0.0212  0.0014  1.0000  -7.4588   0.0000   0.2194
  10.700   1.1916   0.01219   0.00773   0.0215  0.0014  1.0000  -7.6160   0.0000   0.2192
  10.800   1.2008   0.01234   0.00789   0.0218  0.0014  1.0000  -7.7740   0.0000   0.2189
  10.900   1.2099   0.01250   0.00805   0.0220  0.0013  1.0000  -7.9328   0.0000   0.2187
  11.000   1.2190   0.01266   0.00822   0.0223  0.0013  1.0000  -8.0923   0.0000   0.2185
  11.100   1.2280   0.01283   0.00840   0.0226  0.0013  1.0000  -8.2523   0.0000   0.2182
  11.200   1.2369   0.01299   0.00858   0.0229  0.0013  1.0000  -8.4127   0.0000   0.2180
  11.300   1.2457   0.01317   0.00876   0.0232  0.0013  1.0000  -8.5734   0.0000   0.2177
  11.400   1.2545   0.01334   0.00895   0.0235  0.0013  1.0000  -8.7343   0.0000   0.2174
  11.500   1.2631   0.01353   0.00914   0.0238  0.0012  1.0000  -8.8951   0.0000   0.2171
  11.600   1.2716   0.01372   0.00934   0.0242  0.0012  1.0000  -9.0557   0.0000   0.2168
  11.700   1.2800   0.01391   0.00955   0.0245  0.0012  1.0000  -9.2158   0.0000   0.2165
  11.800   1.2883   0.01411   0.00977   0.0249  0.0012  1.0000  -9.3751   0.0000   0.2162
  11.900   1.2964   0.01432   0.01000   0.0253  0.0012  1.0000  -9.5333   0.0000   0.2159
  12.000   1.3043   0.01454   0.01024   0.0257  0.0011  1.0000  -9.6896   0.0000   0.2155
  12.100   1.3120   0.01478   0.01049   0.0261  0.0011  1.0000  -9.8432   0.0000   0.2151
  12.200   1.3194   0.01504   0.01077   0.0266  0.0011  1.0000  -9.9925   0.0000   0.2147
  12.300   1.3264   0.01532   0.01108   0.0271  0.0011  1.0000  -10.1345   0.0000   0.2143
  12.400   1.3326   0.01568   0.01147   0.0277  0.0010  1.0000  -10.2610   0.0000   0.2138
  12.500   1.3311   0.01678   0.01273   0.0290  0.0009  1.0000  -10.2073   0.0000   0.2127
  12.600   1.3386   0.01698   0.01294   0.0294  0.0009  1.0000  -10.3767   0.0000   0.2123
  12.700   1.3458   0.01717   0.01314   0.0299  0.0009  1.0000  -10.5457   0.0000   0.2119
  12.800   1.3529   0.01738   0.01336   0.0303  0.0009  1.0000  -10.7144   0.0000   0.2115
  12.900   1.3599   0.01758   0.01357   0.0308  0.0009  1.0000  -10.8827   0.0000   0.2111
  13.000   1.3667   0.01780   0.01380   0.0313  0.0009  1.0000  -11.0505   0.0000   0.2107
  13.100   1.3733   0.01802   0.01402   0.0319  0.0009  1.0000  -11.2175   0.0000   0.2102
  13.200   1.3798   0.01824   0.01426   0.0324  0.0009  1.0000  -11.3839   0.0000   0.2098
  13.300   1.3860   0.01847   0.01450   0.0329  0.0009  1.0000  -11.5494   0.0000   0.2093
  13.400   1.3921   0.01872   0.01476   0.0335  0.0009  1.0000  -11.7139   0.0000   0.2089
  13.500   1.3980   0.01897   0.01502   0.0341  0.0009  1.0000  -11.8773   0.0000   0.2084
  13.600   1.4037   0.01922   0.01529   0.0346  0.0009  1.0000  -12.0392   0.0000   0.2079
  13.700   1.4091   0.01950   0.01558   0.0352  0.0009  1.0000  -12.1991   0.0000   0.2074
  13.800   1.4142   0.01978   0.01587   0.0358  0.0009  1.0000  -12.3565   0.0000   0.2069
  13.900   1.4190   0.02008   0.01619   0.0364  0.0009  1.0000  -12.5115   0.0000   0.2064
  14.000   1.4227   0.02040   0.01653   0.0372  0.0009  1.0000  -12.6552   0.0000   0.2057
  14.100   1.4197   0.02071   0.01686   0.0391  0.0009  1.0000  -12.7307   0.0000   0.2042
  14.200   1.4184   0.02106   0.01723   0.0406  0.0009  1.0000  -12.8232   0.0000   0.2029
  14.300   1.4181   0.02147   0.01766   0.0417  0.0009  1.0000  -12.9237   0.0000   0.2019
  14.400   1.4168   0.02198   0.01821   0.0427  0.0009  1.0000  -13.0123   0.0000   0.2011
  14.500   1.4151   0.02264   0.01889   0.0433  0.0009  1.0000  -13.0924   0.0000   0.2004
  14.600   1.4125   0.02351   0.01980   0.0435  0.0009  1.0000  -13.1576   0.0000   0.2000
  14.700   1.4095   0.02465   0.02098   0.0431  0.0009  1.0000  -13.2128   0.0000   0.2000
  14.800   1.4072   0.02590   0.02227   0.0424  0.0009  1.0000  -13.2725   0.0000   0.2002
  14.900   1.4052   0.02719   0.02359   0.0417  0.0009  1.0000  -13.3356   0.0000   0.2005
  15.000   1.4031   0.02851   0.02495   0.0411  0.0009  1.0000  -13.3962   0.0000   0.2007
  15.100   1.4004   0.02989   0.02636   0.0405  0.0009  1.0000  -13.4506   0.0000   0.2008
  15.200   1.3971   0.03135   0.02786   0.0398  0.0009  1.0000  -13.4957   0.0000   0.2010
  15.300   1.3930   0.03289   0.02944   0.0392  0.0009  1.0000  -13.5312   0.0000   0.2012
  15.400   1.3882   0.03453   0.03112   0.0385  0.0009  1.0000  -13.5563   0.0000   0.2013
  15.500   1.3826   0.03629   0.03292   0.0377  0.0008  1.0000  -13.5689   0.0000   0.2015
  15.600   1.3761   0.03814   0.03481   0.0370  0.0008  1.0000  -13.5690   0.0000   0.2017
  15.700   1.3687   0.04012   0.03683   0.0361  0.0008  1.0000  -13.5561   0.0000   0.2020
  15.800   1.3604   0.04225   0.03900   0.0352  0.0008  1.0000  -13.5291   0.0000   0.2023
  15.900   1.3516   0.04446   0.04126   0.0342  0.0008  1.0000  -13.4939   0.0000   0.2026
  16.000   1.3415   0.04689   0.04374   0.0331  0.0008  1.0000  -13.4380   0.0000   0.2030
  16.100   1.3309   0.04939   0.04628   0.0320  0.0008  1.0000  -13.3742   0.0000   0.2034
  16.200   1.3195   0.05198   0.04892   0.0309  0.0008  1.0000  -13.2987   0.0000   0.2038
  16.300   1.3068   0.05480   0.05179   0.0296  0.0008  1.0000  -13.2003   0.0000   0.2044
  16.400   1.2937   0.05771   0.05475   0.0282  0.0009  1.0000  -13.0953   0.0000   0.2050
  16.500   1.2805   0.06067   0.05776   0.0268  0.0009  1.0000  -12.9863   0.0000   0.2056
  16.600   1.2671   0.06369   0.06083   0.0254  0.0009  1.0000  -12.8717   0.0000   0.2063
  16.700   1.2537   0.06676   0.06395   0.0239  0.0009  1.0000  -12.7541   0.0000   0.2071
  16.800   1.2404   0.06990   0.06714   0.0224  0.0009  1.0000  -12.6348   0.0000   0.2079
  16.900   1.2273   0.07308   0.07036   0.0208  0.0009  1.0000  -12.5152   0.0000   0.2088
  17.000   1.2145   0.07626   0.07359   0.0192  0.0009  1.0000  -12.3980   0.0000   0.2098
  17.100   1.2027   0.07931   0.07668   0.0177  0.0009  1.0000  -12.2920   0.0000   0.2107
  17.200   1.1929   0.08207   0.07948   0.0163  0.0009  1.0000  -12.2152   0.0000   0.2115
  17.300   1.1809   0.08524   0.08269   0.0147  0.0009  1.0000  -12.1028   0.0000   0.2125
  17.400   1.1707   0.08817   0.08567   0.0132  0.0009  1.0000  -12.0135   0.0000   0.2135
  17.500   1.1624   0.09081   0.08833   0.0119  0.0009  1.0000  -11.9528   0.0000   0.2144
  17.600   1.1524   0.09375   0.09131   0.0104  0.0009  1.0000  -11.8617   0.0000   0.2154
  17.700   1.1457   0.09615   0.09374   0.0092  0.0009  1.0000  -11.8230   0.0000   0.2162
  17.800   1.1369   0.09896   0.09658   0.0078  0.0009  1.0000  -11.7464   0.0000   0.2173
  17.900   1.1311   0.10128   0.09893   0.0066  0.0009  1.0000  -11.7159   0.0000   0.2181
  18.000   1.1253   0.10360   0.10128   0.0054  0.0009  1.0000  -11.6850   0.0000   0.2189
  18.100   1.1179   0.10619   0.10390   0.0041  0.0009  1.0000  -11.6259   0.0000   0.2199
  18.200   1.1140   0.10821   0.10593   0.0030  0.0009  1.0000  -11.6221   0.0000   0.2207
  18.300   1.1078   0.11064   0.10840   0.0017  0.0009  1.0000  -11.5781   0.0000   0.2216
  18.400   1.1031   0.11284   0.11062   0.0006  0.0009  1.0000  -11.5559   0.0000   0.2225
  18.500   1.1000   0.11474   0.11253  -0.0004  0.0009  1.0000  -11.5625   0.0000   0.2232
  18.600   1.0963   0.11676   0.11458  -0.0015  0.0009  1.0000  -11.5562   0.0000   0.2240
  18.700   1.0909   0.11910   0.11694  -0.0028  0.0009  1.0000  -11.5168   0.0000   0.2251
  18.800   1.0884   0.12089   0.11875  -0.0038  0.0009  1.0000  -11.5299   0.0000   0.2258
  18.900   1.0864   0.12262   0.12050  -0.0047  0.0009  1.0000  -11.5488   0.0000   0.2264
  19.000   1.0823   0.12474   0.12264  -0.0059  0.0009  1.0000  -11.5293   0.0000   0.2274
  19.100   1.0789   0.12674   0.12466  -0.0070  0.0009  1.0000  -11.5205   0.0000   0.2283
  19.200   1.0772   0.12843   0.12636  -0.0080  0.0008  1.0000  -11.5412   0.0000   0.2290
  19.300   1.0758   0.13004   0.12799  -0.0089  0.0008  1.0000  -11.5685   0.0000   0.2296
  19.400   1.0743   0.13169   0.12966  -0.0098  0.0008  1.0000  -11.5917   0.0000   0.2303
  19.500   1.0700   0.13388   0.13187  -0.0111  0.0008  1.0000  -11.5585   0.0000   0.2314
  19.600   1.0684   0.13555   0.13356  -0.0121  0.0008  1.0000  -11.5772   0.0000   0.2321
  19.700   1.0675   0.13708   0.13510  -0.0129  0.0008  1.0000  -11.6098   0.0000   0.2328
  19.800   1.0668   0.13859   0.13662  -0.0138  0.0008  1.0000  -11.6437   0.0000   0.2334
  19.900   1.0658   0.14015   0.13819  -0.0147  0.0008  1.0000  -11.6726   0.0000   0.2341
  20.000   1.0622   0.14223   0.14030  -0.0160  0.0008  1.0000  -11.6453   0.0000   0.2352
  20.100   1.0611   0.14382   0.14190  -0.0170  0.0008  1.0000  -11.6683   0.0000   0.2359
  20.200   1.0606   0.14530   0.14339  -0.0179  0.0008  1.0000  -11.7028   0.0000   0.2365
  20.300   1.0602   0.14674   0.14484  -0.0188  0.0008  1.0000  -11.7393   0.0000   0.2372
  20.400   1.0598   0.14818   0.14630  -0.0196  0.0008  1.0000  -11.7744   0.0000   0.2378
  20.500   1.0587   0.14977   0.14790  -0.0206  0.0008  1.0000  -11.7939   0.0000   0.2386
  20.600   1.0560   0.15167   0.14983  -0.0218  0.0008  1.0000  -11.7789   0.0000   0.2396
  20.700   1.0554   0.15317   0.15134  -0.0228  0.0008  1.0000  -11.8061   0.0000   0.2403
  20.800   1.0552   0.15458   0.15276  -0.0237  0.0008  1.0000  -11.8422   0.0000   0.2410
  20.900   1.0552   0.15596   0.15415  -0.0245  0.0008  1.0000  -11.8802   0.0000   0.2416
  21.000   1.0553   0.15732   0.15552  -0.0254  0.0008  1.0000  -11.9206   0.0000   0.2422
  21.100   1.0552   0.15870   0.15691  -0.0263  0.0008  1.0000  -11.9574   0.0000   0.2428
  21.200   1.0528   0.16058   0.15882  -0.0275  0.0008  1.0000  -11.9370   0.0000   0.2439
  21.300   1.0519   0.16214   0.16039  -0.0286  0.0008  1.0000  -11.9526   0.0000   0.2447
  21.400   1.0518   0.16353   0.16180  -0.0295  0.0008  1.0000  -11.9846   0.0000   0.2454
  21.500   1.0520   0.16486   0.16313  -0.0304  0.0008  1.0000  -12.0237   0.0000   0.2460
  21.600   1.0522   0.16617   0.16445  -0.0312  0.0008  1.0000  -12.0632   0.0000   0.2466
  21.700   1.0524   0.16749   0.16579  -0.0321  0.0008  1.0000  -12.1007   0.0000   0.2472
  21.800   1.0525   0.16885   0.16716  -0.0330  0.0008  1.0000  -12.1337   0.0000   0.2479
  21.900   1.0502   0.17072   0.16905  -0.0343  0.0008  1.0000  -12.1067   0.0000   0.2490
  22.000   1.0496   0.17223   0.17057  -0.0353  0.0008  1.0000  -12.1205   0.0000   0.2499
  22.100   1.0498   0.17356   0.17192  -0.0363  0.0008  1.0000  -12.1534   0.0000   0.2505
  22.200   1.0501   0.17485   0.17322  -0.0372  0.0008  1.0000  -12.1895   0.0000   0.2511
  22.300   1.0505   0.17614   0.17452  -0.0381  0.0008  1.0000  -12.2255   0.0000   0.2518
  22.400   1.0508   0.17743   0.17583  -0.0390  0.0008  1.0000  -12.2591   0.0000   0.2524
  22.500   1.0510   0.17876   0.17717  -0.0399  0.0008  1.0000  -12.2884   0.0000   0.2531
  22.600   1.0494   0.18049   0.17892  -0.0411  0.0008  1.0000  -12.2687   0.0000   0.2541
  22.700   1.0484   0.18207   0.18052  -0.0422  0.0008  1.0000  -12.2654   0.0000   0.2551
  22.800   1.0485   0.18342   0.18188  -0.0432  0.0008  1.0000  -12.2889   0.0000   0.2558
  22.900   1.0488   0.18472   0.18319  -0.0441  0.0008  1.0000  -12.3176   0.0000   0.2564
  23.000   1.0492   0.18600   0.18448  -0.0451  0.0008  1.0000  -12.3466   0.0000   0.2571
  23.100   1.0495   0.18729   0.18579  -0.0460  0.0008  1.0000  -12.3735   0.0000   0.2578
  23.200   1.0498   0.18861   0.18712  -0.0470  0.0008  1.0000  -12.3962   0.0000   0.2585
  23.300   1.0492   0.19012   0.18865  -0.0481  0.0008  1.0000  -12.3948   0.0000   0.2594
  23.400   1.0475   0.19188   0.19042  -0.0493  0.0008  1.0000  -12.3597   0.0000   0.2605
  23.500   1.0474   0.19328   0.19184  -0.0504  0.0008  1.0000  -12.3696   0.0000   0.2613
  23.600   1.0476   0.19460   0.19317  -0.0513  0.0008  1.0000  -12.3871   0.0000   0.2620
  23.700   1.0479   0.19591   0.19449  -0.0523  0.0008  1.0000  -12.4051   0.0000   0.2627
  23.800   1.0481   0.19723   0.19583  -0.0533  0.0008  1.0000  -12.4203   0.0000   0.2634
  23.900   1.0482   0.19859   0.19720  -0.0543  0.0007  1.0000  -12.4299   0.0000   0.2642
  24.000   1.0469   0.20028   0.19891  -0.0556  0.0007  1.0000  -12.3954   0.0000   0.2653
  24.100   1.0456   0.20195   0.20060  -0.0568  0.0007  1.0000  -12.3599   0.0000   0.2664
  24.200   1.0455   0.20337   0.20204  -0.0578  0.0007  1.0000  -12.3571   0.0000   0.2672
  24.300   1.0455   0.20474   0.20343  -0.0589  0.0007  1.0000  -12.3586   0.0000   0.2680
  24.400   1.0455   0.20612   0.20482  -0.0599  0.0007  1.0000  -12.3579   0.0000   0.2688
  24.500   1.0453   0.20754   0.20625  -0.0610  0.0007  1.0000  -12.3505   0.0000   0.2697
  24.600   1.0437   0.20935   0.20808  -0.0623  0.0007  1.0000  -12.2896   0.0000   0.2709
  24.700   1.0423   0.21108   0.20984  -0.0636  0.0007  1.0000  -12.2348   0.0000   0.2721
  24.800   1.0419   0.21258   0.21135  -0.0647  0.0007  1.0000  -12.2112   0.0000   0.2730
  24.900   1.0416   0.21406   0.21285  -0.0659  0.0007  1.0000  -12.1884   0.0000   0.2739
  25.000   1.0411   0.21558   0.21438  -0.0670  0.0007  1.0000  -12.1573   0.0000   0.2749


