xflr5 v6.47

 Calculated polar for: Wing2

 1 1 Reynolds number fixed          Mach number fixed         

 xtrf =   1.000 (top)        1.000 (bottom)
 Mach =   0.000     Re =     9.000 e 6     Ncrit =   9.000

  alpha     CL        CD       CDp       Cm    Top Xtr Bot Xtr   Cpmin    Chinge    XCp    
 ------- -------- --------- --------- -------- ------- ------- -------- --------- ---------
 -24.900  -0.8597   0.24957   0.24895   0.0845  0.9993  0.0006  -6.2162   0.0000   0.3223
 -24.300  -0.8722   0.23383   0.23318   0.0782  0.9994  0.0011  -8.5443   0.0000   0.3124
 -24.200  -0.8708   0.23262   0.23197   0.0774  0.9994  0.0011  -8.5774   0.0000   0.3117
 -24.100  -0.8691   0.23151   0.23085   0.0766  0.9994  0.0011  -8.5873   0.0000   0.3112
 -24.000  -0.8673   0.23042   0.22976   0.0759  0.9994  0.0012  -8.5904   0.0000   0.3106
 -23.900  -0.8747   0.22641   0.22572   0.0742  0.9995  0.0012  -9.2149   0.0000   0.3074
 -23.800  -0.8741   0.22496   0.22427   0.0733  0.9995  0.0013  -9.2904   0.0000   0.3066
 -23.700  -0.8729   0.22371   0.22302   0.0725  0.9995  0.0013  -9.3217   0.0000   0.3059
 -23.600  -0.8716   0.22251   0.22181   0.0717  0.9995  0.0014  -9.3426   0.0000   0.3052
 -23.500  -0.8703   0.22129   0.22059   0.0709  0.9995  0.0014  -9.3635   0.0000   0.3045
 -23.400  -0.8692   0.22000   0.21930   0.0700  0.9995  0.0014  -9.3974   0.0000   0.3038
 -23.300  -0.8772   0.21614   0.21541   0.0682  0.9996  0.0015  -9.9434   0.0000   0.3006
 -23.200  -0.8767   0.21471   0.21398   0.0673  0.9996  0.0015  -9.9982   0.0000   0.2997
 -23.100  -0.8762   0.21332   0.21258   0.0664  0.9996  0.0016  -10.0441   0.0000   0.2988
 -23.000  -0.8757   0.21191   0.21117   0.0655  0.9996  0.0016  -10.0903   0.0000   0.2980
 -22.900  -0.8836   0.20826   0.20749   0.0636  0.9996  0.0016  -10.5635   0.0000   0.2948
 -22.800  -0.8839   0.20665   0.20588   0.0626  0.9996  0.0017  -10.6399   0.0000   0.2937
 -22.700  -0.8838   0.20515   0.20438   0.0616  0.9996  0.0017  -10.6925   0.0000   0.2928
 -22.500  -0.8930   0.19985   0.19904   0.0585  0.9997  0.0017  -11.2175   0.0000   0.2884
 -22.400  -0.8937   0.19818   0.19737   0.0575  0.9997  0.0017  -11.2934   0.0000   0.2873
 -22.300  -0.8943   0.19654   0.19573   0.0564  0.9997  0.0018  -11.3613   0.0000   0.2862
 -22.200  -0.9047   0.19258   0.19173   0.0541  0.9997  0.0018  -11.8413   0.0000   0.2826
 -22.100  -0.9064   0.19073   0.18988   0.0529  0.9997  0.0018  -11.9385   0.0000   0.2813
 -22.000  -0.9102   0.18484   0.18394   0.0470  1.0000  0.0018  -12.4335   0.0000   0.2743
 -21.900  -0.9131   0.18252   0.18160   0.0453  1.0000  0.0018  -12.5830   0.0000   0.2724
 -21.800  -0.9277   0.17767   0.17671   0.0421  1.0000  0.0018  -13.1536   0.0000   0.2679
 -21.700  -0.9445   0.17259   0.17158   0.0388  1.0000  0.0018  -13.7622   0.0000   0.2634
 -21.600  -0.9641   0.16705   0.16599   0.0351  1.0000  0.0018  -14.4317   0.0000   0.2585
 -21.500  -0.9877   0.16085   0.15973   0.0308  1.0000  0.0018  -15.1904   0.0000   0.2531
 -21.400  -1.0297   0.15121   0.14999   0.0241  1.0000  0.0018  -16.4689   0.0000   0.2449
 -21.300  -1.0658   0.14293   0.14161   0.0183  1.0000  0.0017  -17.4967   0.0000   0.2385
 -21.200  -1.1582   0.12452   0.12297   0.0050  1.0000  0.0016  -19.9910   0.0000   0.2252
 -21.100  -1.2405   0.10833   0.10657  -0.0066  1.0000  0.0015  -22.0405   0.0000   0.2155
 -21.000  -1.2995   0.09639   0.09448  -0.0149  1.0000  0.0014  -23.4084   0.0000   0.2094
 -20.900  -1.3379   0.08824   0.08621  -0.0205  1.0000  0.0013  -24.2353   0.0000   0.2058
 -20.800  -1.3686   0.08159   0.07947  -0.0250  1.0000  0.0013  -24.8540   0.0000   0.2030
 -20.700  -1.3934   0.07612   0.07392  -0.0286  1.0000  0.0013  -25.3220   0.0000   0.2010
 -20.600  -1.4150   0.07134   0.06908  -0.0317  1.0000  0.0013  -25.7011   0.0000   0.1994
 -20.500  -1.4335   0.06718   0.06485  -0.0344  1.0000  0.0013  -26.0041   0.0000   0.1981
 -20.400  -1.4492   0.06360   0.06121  -0.0365  1.0000  0.0013  -26.2365   0.0000   0.1971
 -20.300  -1.4640   0.06024   0.05780  -0.0386  1.0000  0.0013  -26.4440   0.0000   0.1962
 -20.200  -1.4769   0.05724   0.05476  -0.0402  1.0000  0.0012  -26.6042   0.0000   0.1956
 -20.100  -1.4886   0.05449   0.05196  -0.0417  1.0000  0.0012  -26.7353   0.0000   0.1950
 -20.000  -1.4994   0.05195   0.04936  -0.0430  1.0000  0.0012  -26.8421   0.0000   0.1946
 -19.900  -1.5091   0.04962   0.04699  -0.0441  1.0000  0.0012  -26.9236   0.0000   0.1943
 -19.800  -1.5182   0.04744   0.04477  -0.0451  1.0000  0.0012  -26.9888   0.0000   0.1941
 -19.700  -1.5265   0.04544   0.04273  -0.0459  1.0000  0.0012  -27.0338   0.0000   0.1940
 -19.600  -1.5343   0.04355   0.04080  -0.0466  1.0000  0.0013  -27.0671   0.0000   0.1940
 -19.500  -1.5415   0.04181   0.03902  -0.0471  1.0000  0.0013  -27.0836   0.0000   0.1940
 -19.400  -1.5484   0.04016   0.03733  -0.0475  1.0000  0.0013  -27.0920   0.0000   0.1942
 -19.300  -1.5547   0.03865   0.03579  -0.0477  1.0000  0.0013  -27.0864   0.0000   0.1944
 -19.200  -1.5609   0.03723   0.03433  -0.0478  1.0000  0.0013  -27.0738   0.0000   0.1947
 -19.100  -1.5664   0.03594   0.03300  -0.0477  1.0000  0.0013  -27.0485   0.0000   0.1951
 -19.000  -1.5718   0.03473   0.03176  -0.0475  1.0000  0.0013  -27.0157   0.0000   0.1955
 -18.900  -1.5768   0.03361   0.03061  -0.0472  1.0000  0.0013  -26.9752   0.0000   0.1960
 -18.800  -1.5815   0.03257   0.02954  -0.0468  1.0000  0.0013  -26.9271   0.0000   0.1966
 -18.700  -1.5859   0.03159   0.02853  -0.0463  1.0000  0.0013  -26.8731   0.0000   0.1972
 -18.600  -1.5903   0.03066   0.02757  -0.0456  1.0000  0.0013  -26.8152   0.0000   0.1979
 -18.500  -1.5939   0.02982   0.02670  -0.0449  1.0000  0.0013  -26.7427   0.0000   0.1986
 -18.400  -1.5973   0.02903   0.02587  -0.0442  1.0000  0.0013  -26.6664   0.0000   0.1994
 -18.300  -1.6011   0.02826   0.02508  -0.0433  1.0000  0.0013  -26.5942   0.0000   0.2002
 -18.200  -1.6036   0.02758   0.02437  -0.0424  1.0000  0.0014  -26.4998   0.0000   0.2010
 -18.100  -1.6071   0.02690   0.02366  -0.0414  1.0000  0.0014  -26.4199   0.0000   0.2019
 -18.000  -1.6090   0.02631   0.02305  -0.0404  1.0000  0.0014  -26.3140   0.0000   0.2027
 -17.900  -1.6121   0.02571   0.02243  -0.0392  1.0000  0.0014  -26.2269   0.0000   0.2037
 -17.800  -1.6134   0.02519   0.02188  -0.0381  1.0000  0.0014  -26.1106   0.0000   0.2046
 -17.700  -1.6158   0.02466   0.02133  -0.0369  1.0000  0.0014  -26.0089   0.0000   0.2055
 -17.600  -1.6174   0.02417   0.02082  -0.0356  1.0000  0.0014  -25.8957   0.0000   0.2065
 -17.500  -1.6183   0.02373   0.02035  -0.0344  1.0000  0.0014  -25.7707   0.0000   0.2075
 -17.400  -1.6205   0.02328   0.01988  -0.0330  1.0000  0.0015  -25.6651   0.0000   0.2086
 -17.300  -1.6211   0.02288   0.01946  -0.0317  1.0000  0.0015  -25.5344   0.0000   0.2095
 -17.200  -1.6214   0.02251   0.01906  -0.0304  1.0000  0.0015  -25.3984   0.0000   0.2105
 -17.100  -1.6229   0.02215   0.01868  -0.0288  1.0000  0.0015  -25.2798   0.0000   0.2117
 -17.000  -1.6239   0.02180   0.01832  -0.0273  1.0000  0.0015  -25.1537   0.0000   0.2128
 -16.900  -1.6234   0.02148   0.01797  -0.0260  1.0000  0.0015  -25.0050   0.0000   0.2138
 -16.800  -1.6235   0.02116   0.01764  -0.0245  1.0000  0.0016  -24.8650   0.0000   0.2149
 -16.700  -1.6250   0.02086   0.01731  -0.0227  1.0000  0.0016  -24.7453   0.0000   0.2161
 -16.600  -1.6254   0.02057   0.01701  -0.0210  1.0000  0.0016  -24.6088   0.0000   0.2173
 -16.500  -1.6240   0.02030   0.01672  -0.0196  1.0000  0.0016  -24.4466   0.0000   0.2184
 -16.400  -1.6228   0.02005   0.01645  -0.0181  1.0000  0.0016  -24.2868   0.0000   0.2194
 -16.300  -1.6220   0.01981   0.01619  -0.0165  1.0000  0.0016  -24.1332   0.0000   0.2206
 -16.200  -1.6224   0.01960   0.01596  -0.0147  1.0000  0.0017  -23.9954   0.0000   0.2219
 -16.100  -1.6259   0.01942   0.01576  -0.0122  1.0000  0.0017  -23.9000   0.0000   0.2236
 -16.000  -1.6286   0.01925   0.01557  -0.0098  1.0000  0.0017  -23.7935   0.0000   0.2252
 -15.900  -1.6248   0.01901   0.01532  -0.0087  1.0000  0.0017  -23.5977   0.0000   0.2260
 -15.800  -1.6203   0.01878   0.01508  -0.0077  1.0000  0.0017  -23.3940   0.0000   0.2268
 -15.700  -1.6154   0.01855   0.01483  -0.0067  1.0000  0.0017  -23.1856   0.0000   0.2276
 -15.600  -1.6102   0.01832   0.01459  -0.0058  1.0000  0.0018  -22.9731   0.0000   0.2283
 -15.500  -1.6046   0.01810   0.01436  -0.0049  1.0000  0.0018  -22.7571   0.0000   0.2290
 -15.400  -1.5988   0.01788   0.01413  -0.0041  1.0000  0.0018  -22.5379   0.0000   0.2297
 -15.300  -1.5927   0.01767   0.01390  -0.0033  1.0000  0.0018  -22.3160   0.0000   0.2303
 -15.200  -1.5864   0.01746   0.01368  -0.0026  1.0000  0.0018  -22.0918   0.0000   0.2309
 -15.100  -1.5798   0.01725   0.01346  -0.0019  1.0000  0.0018  -21.8655   0.0000   0.2315
 -15.000  -1.5730   0.01705   0.01325  -0.0012  1.0000  0.0019  -21.6373   0.0000   0.2321
 -14.900  -1.5661   0.01685   0.01304  -0.0005  1.0000  0.0019  -21.4076   0.0000   0.2327
 -14.800  -1.5589   0.01665   0.01283   0.0001  1.0000  0.0019  -21.1764   0.0000   0.2333
 -14.700  -1.5516   0.01646   0.01263   0.0007  1.0000  0.0019  -20.9440   0.0000   0.2339
 -14.600  -1.5441   0.01627   0.01243   0.0013  1.0000  0.0019  -20.7108   0.0000   0.2344
 -14.500  -1.5365   0.01609   0.01224   0.0019  1.0000  0.0020  -20.4768   0.0000   0.2350
 -14.400  -1.5288   0.01591   0.01205   0.0024  1.0000  0.0020  -20.2422   0.0000   0.2355
 -14.300  -1.5209   0.01573   0.01186   0.0029  1.0000  0.0020  -20.0071   0.0000   0.2360
 -14.200  -1.5129   0.01555   0.01168   0.0034  1.0000  0.0020  -19.7717   0.0000   0.2365
 -14.100  -1.5048   0.01538   0.01150   0.0039  1.0000  0.0020  -19.5360   0.0000   0.2370
 -14.000  -1.4966   0.01521   0.01132   0.0044  1.0000  0.0020  -19.3002   0.0000   0.2375
 -13.900  -1.4882   0.01504   0.01114   0.0049  1.0000  0.0020  -19.0643   0.0000   0.2380
 -13.800  -1.4798   0.01488   0.01097   0.0053  1.0000  0.0020  -18.8284   0.0000   0.2385
 -13.700  -1.4713   0.01472   0.01080   0.0058  1.0000  0.0020  -18.5927   0.0000   0.2390
 -13.600  -1.4627   0.01456   0.01064   0.0062  1.0000  0.0021  -18.3572   0.0000   0.2395
 -13.500  -1.4540   0.01440   0.01047   0.0066  1.0000  0.0021  -18.1221   0.0000   0.2399
 -13.400  -1.4453   0.01425   0.01031   0.0070  1.0000  0.0021  -17.8873   0.0000   0.2404
 -13.300  -1.4364   0.01409   0.01015   0.0074  1.0000  0.0021  -17.6529   0.0000   0.2409
 -13.200  -1.4275   0.01394   0.00999   0.0078  1.0000  0.0021  -17.4190   0.0000   0.2413
 -13.100  -1.4185   0.01380   0.00984   0.0082  1.0000  0.0021  -17.1857   0.0000   0.2418
 -13.000  -1.4095   0.01365   0.00969   0.0086  1.0000  0.0021  -16.9530   0.0000   0.2422
 -12.900  -1.4004   0.01350   0.00954   0.0089  1.0000  0.0021  -16.7209   0.0000   0.2427
 -12.800  -1.3912   0.01336   0.00939   0.0093  1.0000  0.0021  -16.4896   0.0000   0.2431
 -12.700  -1.3820   0.01322   0.00924   0.0096  1.0000  0.0021  -16.2590   0.0000   0.2436
 -12.600  -1.3727   0.01308   0.00910   0.0100  1.0000  0.0021  -16.0291   0.0000   0.2440
 -12.500  -1.3633   0.01295   0.00896   0.0103  1.0000  0.0021  -15.8002   0.0000   0.2445
 -12.400  -1.3539   0.01281   0.00882   0.0106  1.0000  0.0021  -15.5721   0.0000   0.2449
 -12.300  -1.3445   0.01267   0.00867   0.0109  1.0000  0.0021  -15.3458   0.0000   0.2453
 -12.200  -1.3353   0.01251   0.00850   0.0113  1.0000  0.0022  -15.1257   0.0000   0.2458
 -12.100  -1.3259   0.01236   0.00834   0.0116  1.0000  0.0022  -14.9059   0.0000   0.2463
 -12.000  -1.3165   0.01220   0.00818   0.0119  1.0000  0.0023  -14.6865   0.0000   0.2467
 -11.900  -1.3071   0.01206   0.00803   0.0123  1.0000  0.0023  -14.4678   0.0000   0.2472
 -11.800  -1.2975   0.01191   0.00787   0.0126  1.0000  0.0024  -14.2496   0.0000   0.2476
 -11.700  -1.2880   0.01177   0.00773   0.0129  1.0000  0.0024  -14.0321   0.0000   0.2481
 -11.600  -1.2783   0.01163   0.00758   0.0132  1.0000  0.0025  -13.8154   0.0000   0.2485
 -11.500  -1.2687   0.01149   0.00744   0.0135  1.0000  0.0026  -13.5995   0.0000   0.2490
 -11.400  -1.2590   0.01135   0.00730   0.0137  1.0000  0.0026  -13.3845   0.0000   0.2494
 -11.300  -1.2492   0.01121   0.00716   0.0140  1.0000  0.0027  -13.1701   0.0000   0.2499
 -11.200  -1.2394   0.01108   0.00703   0.0143  1.0000  0.0028  -12.9567   0.0000   0.2503
 -11.100  -1.2295   0.01095   0.00690   0.0145  1.0000  0.0028  -12.7442   0.0000   0.2507
 -11.000  -1.2196   0.01083   0.00677   0.0148  1.0000  0.0029  -12.5327   0.0000   0.2512
 -10.900  -1.2096   0.01070   0.00664   0.0150  1.0000  0.0029  -12.3222   0.0000   0.2516
 -10.800  -1.1996   0.01058   0.00652   0.0153  1.0000  0.0030  -12.1127   0.0000   0.2521
 -10.700  -1.1913   0.01089   0.00637   0.0159  0.7753  0.0030  -11.9222   0.0000   0.2528
 -10.600  -1.1814   0.01084   0.00625   0.0161  0.7413  0.0031  -11.7173   0.0000   0.2532
 -10.500  -1.1714   0.01077   0.00614   0.0163  0.7192  0.0031  -11.5123   0.0000   0.2536
 -10.400  -1.1613   0.01069   0.00602   0.0166  0.7048  0.0032  -11.3078   0.0000   0.2541
 -10.300  -1.1511   0.01061   0.00591   0.0168  0.6934  0.0032  -11.1044   0.0000   0.2545
 -10.200  -1.1408   0.01052   0.00581   0.0170  0.6843  0.0032  -10.9020   0.0000   0.2550
 -10.100  -1.1305   0.01043   0.00570   0.0172  0.6766  0.0033  -10.7007   0.0000   0.2554
 -10.000  -1.1202   0.01035   0.00560   0.0174  0.6703  0.0033  -10.5006   0.0000   0.2558
  -9.900  -1.1099   0.01027   0.00550   0.0175  0.6629  0.0033  -10.3020   0.0000   0.2563
  -9.800  -1.0994   0.01018   0.00540   0.0177  0.6589  0.0033  -10.1043   0.0000   0.2567
  -9.700  -1.0890   0.01010   0.00531   0.0179  0.6539  0.0033  -9.9081   0.0000   0.2571
  -9.600  -1.0786   0.01002   0.00521   0.0181  0.6481  0.0033  -9.7134   0.0000   0.2576
  -9.500  -1.0681   0.00994   0.00512   0.0182  0.6448  0.0034  -9.5200   0.0000   0.2580
  -9.400  -1.0576   0.00985   0.00502   0.0184  0.6411  0.0034  -9.3295   0.0000   0.2585
  -9.300  -1.0472   0.00975   0.00491   0.0186  0.6368  0.0035  -9.1427   0.0000   0.2589
  -9.200  -1.0368   0.00965   0.00481   0.0188  0.6322  0.0037  -8.9568   0.0000   0.2594
  -9.100  -1.0263   0.00956   0.00470   0.0190  0.6297  0.0038  -8.7792   0.0000   0.2599
  -9.000  -1.0158   0.00946   0.00460   0.0191  0.6265  0.0040  -8.6064   0.0000   0.2603
  -8.900  -1.0053   0.00937   0.00450   0.0193  0.6226  0.0041  -8.4346   0.0000   0.2608
  -8.700  -0.9841   0.00919   0.00431   0.0196  0.6159  0.0044  -8.0941   0.0000   0.2618
  -8.600  -0.9735   0.00911   0.00422   0.0198  0.6129  0.0045  -7.9254   0.0000   0.2623
  -8.500  -0.9628   0.00903   0.00414   0.0199  0.6091  0.0046  -7.7579   0.0000   0.2627
  -8.400  -0.9521   0.00896   0.00405   0.0201  0.6048  0.0047  -7.5917   0.0000   0.2632
  -8.300  -0.9414   0.00888   0.00397   0.0202  0.6022  0.0047  -7.4266   0.0000   0.2637
  -8.200  -0.9306   0.00881   0.00390   0.0203  0.5990  0.0048  -7.2628   0.0000   0.2642
  -8.100  -0.9198   0.00875   0.00382   0.0205  0.5950  0.0049  -7.1003   0.0000   0.2647
  -8.000  -0.9090   0.00868   0.00375   0.0206  0.5906  0.0049  -6.9392   0.0000   0.2652
  -7.900  -0.8982   0.00862   0.00367   0.0207  0.5878  0.0049  -6.7794   0.0000   0.2657
  -7.800  -0.8874   0.00855   0.00360   0.0208  0.5838  0.0050  -6.6220   0.0000   0.2662
  -7.700  -0.8766   0.00848   0.00351   0.0210  0.5790  0.0053  -6.4674   0.0000   0.2668
  -7.600  -0.8658   0.00840   0.00343   0.0211  0.5755  0.0056  -6.3193   0.0000   0.2673
  -7.500  -0.8550   0.00832   0.00335   0.0212  0.5714  0.0058  -6.1770   0.0000   0.2679
  -7.400  -0.8442   0.00825   0.00327   0.0213  0.5661  0.0061  -6.0357   0.0000   0.2684
  -7.300  -0.8333   0.00818   0.00320   0.0215  0.5622  0.0063  -5.8952   0.0000   0.2690
  -7.200  -0.8224   0.00812   0.00313   0.0216  0.5580  0.0065  -5.7557   0.0000   0.2696
  -7.100  -0.8115   0.00807   0.00306   0.0217  0.5523  0.0066  -5.6174   0.0000   0.2701
  -7.000  -0.8005   0.00801   0.00300   0.0218  0.5481  0.0067  -5.4801   0.0000   0.2707
  -6.900  -0.7895   0.00796   0.00293   0.0219  0.5433  0.0068  -5.3441   0.0000   0.2713
  -6.800  -0.7786   0.00791   0.00287   0.0220  0.5375  0.0069  -5.2097   0.0000   0.2719
  -6.700  -0.7676   0.00784   0.00280   0.0221  0.5337  0.0074  -5.0778   0.0000   0.2725
  -6.600  -0.7567   0.00778   0.00273   0.0222  0.5283  0.0078  -4.9471   0.0000   0.2732
  -6.500  -0.7457   0.00772   0.00266   0.0223  0.5227  0.0082  -4.8175   0.0000   0.2738
  -6.400  -0.7347   0.00766   0.00260   0.0224  0.5185  0.0086  -4.6886   0.0000   0.2745
  -6.300  -0.7237   0.00761   0.00254   0.0225  0.5127  0.0088  -4.5610   0.0000   0.2752
  -6.200  -0.7126   0.00757   0.00249   0.0226  0.5079  0.0090  -4.4343   0.0000   0.2758
  -6.100  -0.7015   0.00752   0.00243   0.0226  0.5028  0.0094  -4.3093   0.0000   0.2765
  -5.900  -0.6795   0.00740   0.00230   0.0228  0.4924  0.0108  -4.0651   0.0000   0.2780
  -5.800  -0.6685   0.00736   0.00225   0.0229  0.4867  0.0113  -3.9445   0.0000   0.2788
  -5.700  -0.6573   0.00731   0.00220   0.0230  0.4812  0.0117  -3.8247   0.0000   0.2795
  -5.600  -0.6462   0.00727   0.00214   0.0231  0.4763  0.0125  -3.7134   0.0000   0.2803
  -5.500  -0.6352   0.00721   0.00208   0.0231  0.4697  0.0135  -3.6066   0.0000   0.2812
  -5.400  -0.6241   0.00716   0.00203   0.0232  0.4656  0.0142  -3.5002   0.0000   0.2820
  -5.300  -0.6129   0.00712   0.00198   0.0233  0.4599  0.0147  -3.3947   0.0000   0.2829
  -5.200  -0.6018   0.00709   0.00193   0.0234  0.4540  0.0156  -3.2908   0.0000   0.2837
  -5.100  -0.5907   0.00703   0.00188   0.0234  0.4494  0.0168  -3.1884   0.0000   0.2847
  -5.000  -0.5795   0.00699   0.00183   0.0235  0.4428  0.0176  -3.0869   0.0000   0.2856
  -4.900  -0.5683   0.00696   0.00179   0.0236  0.4384  0.0182  -2.9859   0.0000   0.2866
  -4.800  -0.5572   0.00691   0.00174   0.0236  0.4330  0.0197  -2.8870   0.0000   0.2876
  -4.700  -0.5461   0.00687   0.00169   0.0237  0.4268  0.0212  -2.7893   0.0000   0.2887
  -4.600  -0.5348   0.00683   0.00165   0.0238  0.4224  0.0221  -2.6920   0.0000   0.2897
  -4.500  -0.5237   0.00679   0.00160   0.0238  0.4159  0.0243  -2.5969   0.0000   0.2909
  -4.400  -0.5125   0.00675   0.00156   0.0239  0.4114  0.0257  -2.5024   0.0000   0.2921
  -4.300  -0.5012   0.00671   0.00152   0.0239  0.4064  0.0270  -2.4088   0.0000   0.2933
  -4.200  -0.4901   0.00667   0.00147   0.0240  0.3998  0.0293  -2.3217   0.0000   0.2945
  -4.100  -0.4788   0.00663   0.00144   0.0241  0.3959  0.0308  -2.2383   0.0000   0.2959
  -4.000  -0.4676   0.00660   0.00140   0.0241  0.3898  0.0332  -2.1563   0.0000   0.2972
  -3.900  -0.4564   0.00656   0.00136   0.0242  0.3848  0.0357  -2.0753   0.0000   0.2987
  -3.800  -0.4452   0.00652   0.00132   0.0242  0.3804  0.0386  -1.9952   0.0000   0.3002
  -3.700  -0.4340   0.00648   0.00128   0.0243  0.3743  0.0413  -1.9163   0.0000   0.3018
  -3.600  -0.4227   0.00645   0.00125   0.0243  0.3703  0.0438  -1.8380   0.0000   0.3034
  -3.500  -0.4115   0.00641   0.00121   0.0244  0.3653  0.0470  -1.7676   0.0000   0.3052
  -3.400  -0.4002   0.00639   0.00118   0.0244  0.3588  0.0498  -1.6981   0.0000   0.3070
  -3.300  -0.3890   0.00634   0.00114   0.0245  0.3555  0.0540  -1.6299   0.0000   0.3090
  -3.200  -0.3777   0.00631   0.00112   0.0245  0.3506  0.0576  -1.5623   0.0000   0.3110
  -3.100  -0.3664   0.00627   0.00108   0.0245  0.3452  0.0611  -1.4956   0.0000   0.3132
  -3.000  -0.3551   0.00624   0.00106   0.0246  0.3422  0.0646  -1.4336   0.0000   0.3155
  -2.900  -0.3438   0.00621   0.00103   0.0246  0.3373  0.0691  -1.3745   0.0000   0.3179
  -2.800  -0.3325   0.00618   0.00100   0.0247  0.3316  0.0731  -1.3157   0.0000   0.3205
  -2.700  -0.3212   0.00615   0.00097   0.0247  0.3285  0.0769  -1.2578   0.0000   0.3233
  -2.600  -0.3099   0.00613   0.00095   0.0247  0.3239  0.0804  -1.2054   0.0000   0.3262
  -2.400  -0.2872   0.00608   0.00091   0.0248  0.3164  0.0882  -1.1025   0.0000   0.3329
  -2.300  -0.2759   0.00604   0.00089   0.0248  0.3129  0.0940  -1.0565   0.0000   0.3366
  -2.200  -0.2645   0.00603   0.00087   0.0248  0.3079  0.0975  -1.0107   0.0000   0.3406
  -2.100  -0.2532   0.00599   0.00084   0.0249  0.3041  0.1034  -0.9674   0.0000   0.3450
  -2.000  -0.2418   0.00597   0.00083   0.0249  0.3010  0.1075  -0.9263   0.0000   0.3498
  -1.900  -0.2305   0.00594   0.00081   0.0249  0.2967  0.1143  -0.8866   0.0000   0.3550
  -1.800  -0.2191   0.00592   0.00079   0.0249  0.2919  0.1195  -0.8496   0.0000   0.3608
  -1.700  -0.2078   0.00588   0.00077   0.0250  0.2902  0.1263  -0.8135   0.0000   0.3672
  -1.600  -0.1964   0.00585   0.00075   0.0250  0.2875  0.1336  -0.7801   0.0000   0.3744
  -1.500  -0.1851   0.00583   0.00074   0.0250  0.2836  0.1400  -0.7473   0.0000   0.3824
  -1.400  -0.1738   0.00580   0.00072   0.0250  0.2788  0.1487  -0.7171   0.0000   0.3914
  -1.300  -0.1625   0.00576   0.00071   0.0251  0.2769  0.1578  -0.6874   0.0000   0.4017
  -1.200  -0.1511   0.00573   0.00069   0.0251  0.2737  0.1669  -0.6598   0.0000   0.4136
  -1.100  -0.1398   0.00571   0.00068   0.0251  0.2694  0.1754  -0.6327   0.0000   0.4273
  -1.000  -0.1285   0.00567   0.00066   0.0251  0.2655  0.1861  -0.6075   0.0000   0.4434
  -0.900  -0.1172   0.00562   0.00065   0.0252  0.2639  0.1977  -0.5827   0.0000   0.4627
  -0.800  -0.1059   0.00558   0.00064   0.0252  0.2616  0.2096  -0.5725   0.0000   0.4860
  -0.700  -0.0946   0.00555   0.00062   0.0252  0.2585  0.2219  -0.5869   0.0000   0.5149
  -0.600  -0.0833   0.00551   0.00061   0.0252  0.2545  0.2341  -0.6013   0.0000   0.5516
  -0.400  -0.0607   0.00543   0.00059   0.0253  0.2501  0.2605  -0.6304   0.0000   0.6661
  -0.300  -0.0494   0.00540   0.00058   0.0253  0.2470  0.2733  -0.6450   0.0000   0.7625
  -0.200  -0.0381   0.00537   0.00058   0.0253  0.2430  0.2865  -0.6603   0.0000   0.9157
  -0.100  -0.0268   0.00534   0.00057   0.0253  0.2398  0.2994  -0.6759   0.0000   1.1991
   0.000  -0.0154   0.00531   0.00057   0.0253  0.2382  0.3107  -0.6916   0.0000   1.9029
   0.100  -0.0041   0.00528   0.00056   0.0253  0.2360  0.3221  -0.7074   0.0000   6.5267
   0.200   0.0073   0.00526   0.00056   0.0254  0.2333  0.3344  -0.7231   0.0000  -3.2802
   0.300   0.0186   0.00524   0.00056   0.0254  0.2300  0.3450  -0.7390   0.0000  -1.1291
   0.400   0.0301   0.00522   0.00056   0.0254  0.2274  0.3542  -0.7550   0.0000  -0.6059
   0.500   0.0415   0.00520   0.00056   0.0254  0.2263  0.3638  -0.7711   0.0000  -0.3712
   0.600   0.0529   0.00518   0.00056   0.0254  0.2245  0.3742  -0.7872   0.0000  -0.2383
   0.700   0.0644   0.00518   0.00056   0.0254  0.2221  0.3815  -0.8036   0.0000  -0.1519
   0.800   0.0758   0.00517   0.00057   0.0254  0.2189  0.3897  -0.8207   0.0000  -0.0920
   0.900   0.0872   0.00517   0.00057   0.0254  0.2153  0.3976  -0.8380   0.0000  -0.0477
   1.000   0.0987   0.00515   0.00057   0.0254  0.2142  0.4061  -0.8553   0.0000  -0.0135
   1.100   0.1101   0.00514   0.00058   0.0254  0.2123  0.4149  -0.8727   0.0000   0.0134
   1.200   0.1216   0.00514   0.00058   0.0253  0.2098  0.4211  -0.8902   0.0000   0.0354
   1.300   0.1330   0.00514   0.00059   0.0253  0.2068  0.4299  -0.9077   0.0000   0.0535
   1.400   0.1445   0.00515   0.00060   0.0253  0.2036  0.4370  -0.9253   0.0000   0.0688
   1.500   0.1559   0.00513   0.00060   0.0253  0.2026  0.4466  -0.9430   0.0000   0.0818
   1.600   0.1674   0.00512   0.00061   0.0253  0.2015  0.4555  -0.9608   0.0000   0.0930
   1.700   0.1789   0.00511   0.00062   0.0253  0.1999  0.4639  -0.9786   0.0000   0.1028
   1.800   0.1903   0.00510   0.00063   0.0253  0.1979  0.4747  -0.9965   0.0000   0.1114
   1.900   0.2017   0.00510   0.00064   0.0253  0.1955  0.4849  -1.0144   0.0000   0.1189
   2.000   0.2131   0.00510   0.00065   0.0253  0.1926  0.4952  -1.0333   0.0000   0.1257
   2.100   0.2245   0.00508   0.00066   0.0253  0.1910  0.5062  -1.0524   0.0000   0.1318
   2.200   0.2359   0.00506   0.00067   0.0253  0.1902  0.5186  -1.0716   0.0000   0.1373
   2.300   0.2473   0.00505   0.00068   0.0253  0.1890  0.5311  -1.0908   0.0000   0.1423
   2.400   0.2587   0.00503   0.00069   0.0253  0.1874  0.5440  -1.1101   0.0000   0.1468
   2.500   0.2701   0.00502   0.00070   0.0253  0.1855  0.5576  -1.1294   0.0000   0.1509
   2.600   0.2814   0.00501   0.00072   0.0253  0.1833  0.5722  -1.1488   0.0000   0.1546
   2.700   0.2927   0.00499   0.00073   0.0253  0.1806  0.5892  -1.1682   0.0000   0.1581
   2.800   0.3039   0.00494   0.00074   0.0253  0.1793  0.6115  -1.1876   0.0000   0.1612
   2.900   0.3150   0.00488   0.00075   0.0253  0.1785  0.6388  -1.2070   0.0000   0.1640
   3.000   0.3261   0.00482   0.00076   0.0254  0.1773  0.6677  -1.2265   0.0000   0.1666
   3.100   0.3372   0.00478   0.00078   0.0254  0.1756  0.6925  -1.2461   0.0000   0.1690
   3.200   0.3484   0.00476   0.00080   0.0254  0.1736  0.7129  -1.2657   0.0000   0.1713
   3.300   0.3596   0.00474   0.00082   0.0254  0.1711  0.7310  -1.2855   0.0000   0.1735
   3.400   0.3708   0.00472   0.00084   0.0255  0.1685  0.7468  -1.3053   0.0000   0.1755
   3.500   0.3822   0.00472   0.00085   0.0255  0.1678  0.7576  -1.3255   0.0000   0.1776
   3.600   0.3935   0.00470   0.00087   0.0255  0.1672  0.7714  -1.3456   0.0000   0.1794
   3.700   0.4050   0.00470   0.00089   0.0255  0.1663  0.7785  -1.3660   0.0000   0.1812
   3.800   0.4163   0.00469   0.00091   0.0255  0.1651  0.7910  -1.3862   0.0000   0.1828
   3.900   0.4276   0.00470   0.00093   0.0255  0.1636  0.7994  -1.4066   0.0000   0.1844
   4.000   0.4391   0.00473   0.00096   0.0255  0.1620  0.8046  -1.4271   0.0000   0.1859
   4.100   0.4503   0.00473   0.00098   0.0255  0.1600  0.8154  -1.4483   0.0000   0.1873
   4.200   0.4616   0.00474   0.00100   0.0255  0.1579  0.8234  -1.4700   0.0000   0.1886
   4.300   0.4731   0.00475   0.00102   0.0255  0.1569  0.8281  -1.4920   0.0000   0.1899
   4.400   0.4846   0.00476   0.00105   0.0255  0.1564  0.8329  -1.5140   0.0000   0.1911
   4.500   0.4959   0.00476   0.00107   0.0255  0.1558  0.8424  -1.5360   0.0000   0.1922
   4.600   0.5072   0.00477   0.00109   0.0255  0.1549  0.8495  -1.5580   0.0000   0.1933
   4.700   0.5185   0.00478   0.00111   0.0255  0.1538  0.8546  -1.5802   0.0000   0.1943
   4.800   0.5299   0.00481   0.00114   0.0255  0.1525  0.8578  -1.6025   0.0000   0.1953
   4.900   0.5413   0.00484   0.00117   0.0255  0.1510  0.8617  -1.6248   0.0000   0.1963
   5.000   0.5525   0.00486   0.00120   0.0256  0.1492  0.8704  -1.6470   0.0000   0.1971
   5.100   0.5637   0.00487   0.00123   0.0256  0.1470  0.8773  -1.6692   0.0000   0.1979
   5.200   0.5749   0.00489   0.00126   0.0256  0.1457  0.8830  -1.6917   0.0000   0.1987
   5.300   0.5862   0.00491   0.00129   0.0256  0.1439  0.8869  -1.7144   0.0000   0.1995
   5.400   0.5976   0.00495   0.00132   0.0256  0.1422  0.8894  -1.7371   0.0000   0.2002
   5.500   0.6089   0.00499   0.00136   0.0256  0.1403  0.8930  -1.7598   0.0000   0.2009
   5.600   0.6199   0.00502   0.00140   0.0257  0.1372  0.9014  -1.7821   0.0000   0.2015
   5.700   0.6308   0.00504   0.00143   0.0258  0.1352  0.9086  -1.8046   0.0000   0.2020
   5.800   0.6419   0.00506   0.00146   0.0258  0.1337  0.9147  -1.8274   0.0000   0.2025
   5.900   0.6530   0.00511   0.00151   0.0259  0.1309  0.9192  -1.8502   0.0000   0.2031
   6.000   0.6642   0.00517   0.00155   0.0259  0.1276  0.9220  -1.8731   0.0000   0.2036
   6.100   0.6755   0.00521   0.00159   0.0259  0.1251  0.9239  -1.8963   0.0000   0.2042
   6.200   0.6867   0.00525   0.00163   0.0259  0.1234  0.9302  -1.9196   0.0000   0.2047
   6.300   0.6974   0.00529   0.00168   0.0260  0.1208  0.9392  -1.9424   0.0000   0.2051
   6.400   0.7081   0.00534   0.00173   0.0261  0.1174  0.9469  -1.9659   0.0000   0.2054
   6.500   0.7190   0.00538   0.00178   0.0262  0.1150  0.9531  -1.9902   0.0000   0.2057
   6.600   0.7300   0.00544   0.00183   0.0263  0.1122  0.9570  -2.0827   0.0000   0.2061
   6.700   0.7409   0.00554   0.00190   0.0263  0.1064  0.9594  -2.1790   0.0000   0.2065
   6.800   0.7520   0.00560   0.00195   0.0263  0.1041  0.9609  -2.2784   0.0000   0.2069
   6.900   0.7636   0.00573   0.00204   0.0262  0.0966  0.9681  -2.3801   0.0000   0.2075
   7.000   0.7754   0.00589   0.00216   0.0260  0.0871  0.9746  -2.4837   0.0000   0.2082
   7.100   0.7836   0.00683   0.00281   0.0260  0.0299  0.9817  -2.5625   0.0000   0.2084
   7.200   0.7944   0.00723   0.00312   0.0259  0.0084  0.9857  -2.6588   0.0000   0.2089
   7.300   0.8062   0.00735   0.00322   0.0258  0.0054  0.9881  -2.7663   0.0000   0.2095
   7.400   0.8180   0.00745   0.00331   0.0256  0.0037  0.9898  -2.8746   0.0000   0.2101
   7.500   0.8298   0.00754   0.00339   0.0254  0.0031  0.9911  -2.9840   0.0000   0.2106
   7.600   0.8415   0.00763   0.00347   0.0253  0.0022  0.9921  -3.0969   0.0000   0.2111
   7.700   0.8531   0.00771   0.00355   0.0252  0.0020  0.9930  -3.2220   0.0000   0.2115
   7.800   0.8648   0.00779   0.00362   0.0250  0.0018  0.9937  -3.3490   0.0000   0.2120
   7.900   0.8763   0.00787   0.00371   0.0249  0.0017  0.9944  -3.4766   0.0000   0.2124
   8.000   0.8879   0.00796   0.00379   0.0248  0.0015  0.9950  -3.6054   0.0000   0.2128
   8.100   0.8995   0.00804   0.00387   0.0247  0.0014  0.9955  -3.7354   0.0000   0.2131
   8.200   0.9110   0.00813   0.00395   0.0246  0.0014  0.9959  -3.8670   0.0000   0.2135
   8.300   0.9225   0.00822   0.00404   0.0245  0.0013  0.9964  -4.0004   0.0000   0.2138
   8.400   0.9341   0.00830   0.00413   0.0244  0.0013  0.9967  -4.1357   0.0000   0.2142
   8.500   0.9456   0.00839   0.00421   0.0243  0.0012  0.9971  -4.2730   0.0000   0.2145
   8.600   0.9572   0.00848   0.00431   0.0241  0.0012  0.9974  -4.4123   0.0000   0.2148
   8.700   0.9687   0.00858   0.00440   0.0240  0.0012  0.9976  -4.5535   0.0000   0.2151
   8.800   0.9803   0.00867   0.00450   0.0239  0.0012  0.9979  -4.6966   0.0000   0.2154
   8.900   0.9920   0.00877   0.00459   0.0237  0.0011  0.9981  -4.8419   0.0000   0.2158
   9.000   1.0037   0.00887   0.00470   0.0235  0.0011  0.9984  -4.9893   0.0000   0.2161
   9.100   1.0155   0.00897   0.00480   0.0233  0.0011  0.9985  -5.1386   0.0000   0.2164
   9.200   1.0272   0.00908   0.00491   0.0232  0.0011  0.9987  -5.2896   0.0000   0.2167
   9.300   1.0389   0.00919   0.00502   0.0230  0.0011  0.9989  -5.4421   0.0000   0.2170
   9.400   1.0506   0.00930   0.00514   0.0228  0.0011  0.9990  -5.5958   0.0000   0.2173
   9.500   1.0622   0.00941   0.00525   0.0226  0.0011  0.9991  -5.7507   0.0000   0.2176
   9.600   1.0737   0.00953   0.00538   0.0225  0.0010  0.9992  -5.9063   0.0000   0.2178
   9.700   1.0851   0.00965   0.00550   0.0224  0.0010  0.9993  -6.0624   0.0000   0.2180
   9.800   1.0963   0.00978   0.00564   0.0223  0.0010  0.9993  -6.2189   0.0000   0.2182
   9.900   1.1074   0.00991   0.00577   0.0222  0.0010  0.9994  -6.3756   0.0000   0.2183
  10.000   1.1183   0.01004   0.00592   0.0222  0.0010  0.9995  -6.5323   0.0000   0.2184
  10.100   1.1291   0.01019   0.00607   0.0221  0.0010  0.9995  -6.6888   0.0000   0.2185
  10.200   1.1397   0.01034   0.00623   0.0221  0.0010  0.9995  -6.8450   0.0000   0.2185
  10.300   1.1502   0.01050   0.00641   0.0222  0.0009  0.9996  -7.0007   0.0000   0.2185
  10.400   1.1607   0.01067   0.00660   0.0222  0.0009  0.9996  -7.1552   0.0000   0.2185
  10.500   1.1709   0.01087   0.00682   0.0222  0.0009  0.9997  -7.3067   0.0000   0.2185
  10.600   1.1816   0.01100   0.00695   0.0222  0.0009  0.9997  -7.4787   0.0000   0.2186
  10.700   1.1922   0.01112   0.00707   0.0222  0.0009  0.9997  -7.6537   0.0000   0.2186
  10.800   1.2028   0.01124   0.00720   0.0222  0.0009  0.9998  -7.8302   0.0000   0.2186
  10.900   1.2134   0.01137   0.00732   0.0222  0.0009  0.9998  -8.0082   0.0000   0.2186
  11.000   1.2239   0.01149   0.00745   0.0222  0.0009  0.9998  -8.1876   0.0000   0.2186
  11.100   1.2343   0.01162   0.00757   0.0223  0.0009  0.9998  -8.3684   0.0000   0.2186
  11.200   1.2447   0.01175   0.00770   0.0223  0.0009  0.9999  -8.5506   0.0000   0.2186
  11.300   1.2551   0.01188   0.00783   0.0223  0.0009  0.9999  -8.7345   0.0000   0.2185
  11.400   1.2654   0.01201   0.00797   0.0223  0.0009  0.9999  -8.9201   0.0000   0.2185
  11.500   1.2757   0.01214   0.00810   0.0224  0.0009  0.9999  -9.1070   0.0000   0.2184
  11.600   1.2859   0.01227   0.00823   0.0224  0.0009  0.9999  -9.2954   0.0000   0.2184
  11.700   1.2961   0.01241   0.00837   0.0225  0.0009  1.0000  -9.4849   0.0000   0.2183
  11.800   1.3062   0.01254   0.00851   0.0225  0.0009  1.0000  -9.6755   0.0000   0.2183
  11.900   1.3162   0.01268   0.00865   0.0226  0.0009  1.0000  -9.8674   0.0000   0.2182
  12.000   1.3256   0.01282   0.00879   0.0228  0.0009  1.0000  -10.0552   0.0000   0.2180
  12.100   1.3347   0.01295   0.00893   0.0231  0.0009  1.0000  -10.2421   0.0000   0.2177
  12.200   1.3438   0.01309   0.00907   0.0233  0.0009  1.0000  -10.4301   0.0000   0.2175
  12.300   1.3527   0.01323   0.00921   0.0236  0.0009  1.0000  -10.6190   0.0000   0.2173
  12.400   1.3617   0.01338   0.00936   0.0239  0.0009  1.0000  -10.8089   0.0000   0.2170
  12.500   1.3705   0.01352   0.00950   0.0242  0.0009  1.0000  -10.9996   0.0000   0.2167
  12.600   1.3793   0.01367   0.00965   0.0245  0.0009  1.0000  -11.1911   0.0000   0.2165
  12.700   1.3880   0.01382   0.00980   0.0248  0.0009  1.0000  -11.3834   0.0000   0.2162
  12.800   1.3966   0.01397   0.00996   0.0251  0.0009  1.0000  -11.5763   0.0000   0.2159
  12.900   1.4052   0.01412   0.01011   0.0254  0.0009  1.0000  -11.7697   0.0000   0.2156
  13.000   1.4136   0.01427   0.01027   0.0257  0.0009  1.0000  -11.9637   0.0000   0.2153
  13.100   1.4220   0.01443   0.01043   0.0261  0.0009  1.0000  -12.1581   0.0000   0.2150
  13.200   1.4302   0.01459   0.01059   0.0264  0.0009  1.0000  -12.3528   0.0000   0.2147
  13.300   1.4383   0.01475   0.01076   0.0268  0.0008  1.0000  -12.5478   0.0000   0.2144
  13.400   1.4463   0.01491   0.01092   0.0272  0.0008  1.0000  -12.7428   0.0000   0.2140
  13.500   1.4542   0.01508   0.01110   0.0276  0.0008  1.0000  -12.9379   0.0000   0.2137
  13.600   1.4620   0.01525   0.01127   0.0280  0.0008  1.0000  -13.1329   0.0000   0.2133
  13.700   1.4696   0.01542   0.01145   0.0285  0.0008  1.0000  -13.3276   0.0000   0.2129
  13.800   1.4771   0.01559   0.01163   0.0289  0.0008  1.0000  -13.5219   0.0000   0.2125
  13.900   1.4844   0.01577   0.01181   0.0294  0.0008  1.0000  -13.7156   0.0000   0.2121
  14.000   1.4916   0.01595   0.01199   0.0299  0.0008  1.0000  -13.9087   0.0000   0.2117
  14.100   1.4985   0.01613   0.01218   0.0304  0.0008  1.0000  -14.1010   0.0000   0.2113
  14.200   1.5053   0.01632   0.01238   0.0310  0.0008  1.0000  -14.2924   0.0000   0.2108
  14.300   1.5119   0.01651   0.01258   0.0315  0.0008  1.0000  -14.4829   0.0000   0.2104
  14.400   1.5184   0.01671   0.01278   0.0321  0.0008  1.0000  -14.6728   0.0000   0.2099
  14.500   1.5248   0.01691   0.01299   0.0327  0.0008  1.0000  -14.8628   0.0000   0.2094
  14.600   1.5313   0.01711   0.01320   0.0332  0.0008  1.0000  -15.0548   0.0000   0.2090
  14.700   1.5379   0.01733   0.01343   0.0337  0.0008  1.0000  -15.2496   0.0000   0.2086
  14.800   1.5447   0.01755   0.01366   0.0341  0.0008  1.0000  -15.4461   0.0000   0.2082
  14.900   1.5513   0.01779   0.01390   0.0345  0.0008  1.0000  -15.6425   0.0000   0.2079
  15.000   1.5578   0.01803   0.01415   0.0350  0.0008  1.0000  -15.8373   0.0000   0.2075
  15.100   1.5639   0.01828   0.01441   0.0354  0.0008  1.0000  -16.0295   0.0000   0.2071
  15.200   1.5697   0.01853   0.01467   0.0359  0.0007  1.0000  -16.2179   0.0000   0.2066
  15.300   1.5752   0.01881   0.01496   0.0365  0.0007  1.0000  -16.4040   0.0000   0.2062
  15.400   1.5789   0.01909   0.01526   0.0373  0.0007  1.0000  -16.5699   0.0000   0.2055
  15.500   1.5752   0.01936   0.01554   0.0394  0.0007  1.0000  -16.6483   0.0000   0.2040
  15.600   1.5745   0.01966   0.01586   0.0409  0.0007  1.0000  -16.7626   0.0000   0.2028
  15.700   1.5751   0.02000   0.01621   0.0420  0.0007  1.0000  -16.8905   0.0000   0.2019
  15.800   1.5741   0.02043   0.01666   0.0432  0.0007  1.0000  -16.9970   0.0000   0.2010
  15.900   1.5730   0.02094   0.01720   0.0441  0.0007  1.0000  -17.1006   0.0000   0.2002
  16.000   1.5715   0.02156   0.01785   0.0447  0.0007  1.0000  -17.1966   0.0000   0.1996
  16.100   1.5692   0.02235   0.01867   0.0450  0.0007  1.0000  -17.2793   0.0000   0.1992
  16.200   1.5668   0.02330   0.01964   0.0450  0.0007  1.0000  -17.3557   0.0000   0.1989
  16.300   1.5647   0.02436   0.02074   0.0446  0.0007  1.0000  -17.4331   0.0000   0.1989
  16.400   1.5630   0.02550   0.02191   0.0441  0.0007  1.0000  -17.5142   0.0000   0.1989
  16.500   1.5613   0.02668   0.02312   0.0437  0.0007  1.0000  -17.5953   0.0000   0.1990
  16.600   1.5593   0.02791   0.02437   0.0432  0.0007  1.0000  -17.6719   0.0000   0.1990
  16.700   1.5568   0.02919   0.02568   0.0427  0.0007  1.0000  -17.7408   0.0000   0.1990
  16.800   1.5537   0.03052   0.02705   0.0423  0.0007  1.0000  -17.8017   0.0000   0.1990
  16.900   1.5500   0.03193   0.02849   0.0418  0.0007  1.0000  -17.8530   0.0000   0.1991
  17.000   1.5455   0.03345   0.03003   0.0412  0.0006  1.0000  -17.8910   0.0000   0.1991
  17.100   1.5404   0.03500   0.03162   0.0407  0.0006  1.0000  -17.9201   0.0000   0.1991
  17.200   1.5344   0.03667   0.03332   0.0401  0.0006  1.0000  -17.9364   0.0000   0.1991
  17.300   1.5275   0.03848   0.03517   0.0394  0.0006  1.0000  -17.9362   0.0000   0.1992
  17.400   1.5201   0.04038   0.03711   0.0387  0.0006  1.0000  -17.9276   0.0000   0.1993
  17.500   1.5122   0.04235   0.03912   0.0379  0.0006  1.0000  -17.9106   0.0000   0.1995
  17.600   1.5032   0.04449   0.04130   0.0370  0.0006  1.0000  -17.8746   0.0000   0.1997
  17.700   1.4930   0.04681   0.04366   0.0361  0.0006  1.0000  -17.8186   0.0000   0.1999
  17.800   1.4822   0.04918   0.04607   0.0351  0.0006  1.0000  -17.7519   0.0000   0.2002
  17.900   1.4710   0.05165   0.04858   0.0340  0.0006  1.0000  -17.6766   0.0000   0.2005
  18.000   1.4592   0.05423   0.05121   0.0329  0.0006  1.0000  -17.5905   0.0000   0.2008
  18.100   1.4463   0.05699   0.05402   0.0316  0.0006  1.0000  -17.4848   0.0000   0.2012
  18.200   1.4326   0.05995   0.05702   0.0302  0.0006  1.0000  -17.3626   0.0000   0.2018
  18.300   1.4186   0.06298   0.06011   0.0287  0.0006  1.0000  -17.2314   0.0000   0.2023
  18.400   1.4045   0.06608   0.06325   0.0272  0.0006  1.0000  -17.0980   0.0000   0.2030
  18.500   1.3905   0.06923   0.06645   0.0257  0.0007  1.0000  -16.9627   0.0000   0.2037
  18.600   1.3771   0.07235   0.06962   0.0241  0.0007  1.0000  -16.8336   0.0000   0.2044
  18.700   1.3645   0.07535   0.07266   0.0226  0.0007  1.0000  -16.7161   0.0000   0.2051
  18.800   1.3502   0.07866   0.07602   0.0209  0.0007  1.0000  -16.5658   0.0000   0.2059
  18.900   1.3356   0.08208   0.07949   0.0192  0.0007  1.0000  -16.4077   0.0000   0.2069
  19.000   1.3216   0.08546   0.08292   0.0174  0.0007  1.0000  -16.2559   0.0000   0.2078
  19.100   1.3122   0.08814   0.08562   0.0161  0.0007  1.0000  -16.1812   0.0000   0.2086
  19.200   1.2987   0.09147   0.08900   0.0143  0.0007  1.0000  -16.0331   0.0000   0.2096
  19.300   1.2857   0.09480   0.09238   0.0125  0.0007  1.0000  -15.8879   0.0000   0.2106
  19.400   1.2782   0.09726   0.09487   0.0112  0.0007  1.0000  -15.8381   0.0000   0.2114
  19.500   1.2656   0.10059   0.09824   0.0094  0.0007  1.0000  -15.6940   0.0000   0.2125
  19.600   1.2593   0.10287   0.10054   0.0082  0.0007  1.0000  -15.6614   0.0000   0.2132
  19.700   1.2475   0.10610   0.10381   0.0064  0.0007  1.0000  -15.5242   0.0000   0.2144
  19.800   1.2420   0.10829   0.10602   0.0052  0.0007  1.0000  -15.5017   0.0000   0.2151
  19.900   1.2320   0.11128   0.10906   0.0035  0.0007  1.0000  -15.3905   0.0000   0.2163
  20.000   1.2264   0.11352   0.11132   0.0023  0.0007  1.0000  -15.3608   0.0000   0.2171
  20.100   1.2225   0.11547   0.11329   0.0012  0.0007  1.0000  -15.3604   0.0000   0.2178
  20.200   1.2124   0.11849   0.11634  -0.0006  0.0007  1.0000  -15.2406   0.0000   0.2190
  20.300   1.2087   0.12043   0.11830  -0.0017  0.0007  1.0000  -15.2401   0.0000   0.2197
  20.400   1.2054   0.12229   0.12018  -0.0028  0.0007  1.0000  -15.2473   0.0000   0.2204
  20.500   1.1966   0.12515   0.12307  -0.0045  0.0007  1.0000  -15.1424   0.0000   0.2217
  20.600   1.1934   0.12701   0.12495  -0.0056  0.0007  1.0000  -15.1472   0.0000   0.2224
  20.700   1.1911   0.12871   0.12667  -0.0066  0.0007  1.0000  -15.1692   0.0000   0.2231
  20.800   1.1847   0.13116   0.12914  -0.0081  0.0006  1.0000  -15.1045   0.0000   0.2242
  20.900   1.1803   0.13325   0.13125  -0.0094  0.0006  1.0000  -15.0796   0.0000   0.2251
  21.000   1.1784   0.13489   0.13290  -0.0104  0.0006  1.0000  -15.1053   0.0000   0.2257
  21.100   1.1767   0.13649   0.13452  -0.0114  0.0006  1.0000  -15.1337   0.0000   0.2264
  21.200   1.1713   0.13877   0.13683  -0.0129  0.0006  1.0000  -15.0839   0.0000   0.2275
  21.300   1.1674   0.14080   0.13887  -0.0142  0.0006  1.0000  -15.0617   0.0000   0.2284
  21.400   1.1660   0.14237   0.14045  -0.0152  0.0006  1.0000  -15.0916   0.0000   0.2291
  21.500   1.1648   0.14388   0.14198  -0.0162  0.0006  1.0000  -15.1259   0.0000   0.2297
  21.600   1.1636   0.14539   0.14350  -0.0171  0.0006  1.0000  -15.1596   0.0000   0.2303
  21.700   1.1573   0.14787   0.14601  -0.0188  0.0006  1.0000  -15.0779   0.0000   0.2316
  21.800   1.1554   0.14952   0.14768  -0.0199  0.0006  1.0000  -15.0936   0.0000   0.2324
  21.900   1.1545   0.15099   0.14915  -0.0208  0.0006  1.0000  -15.1296   0.0000   0.2330
  22.000   1.1540   0.15239   0.15056  -0.0218  0.0006  1.0000  -15.1729   0.0000   0.2336
  22.100   1.1533   0.15382   0.15200  -0.0227  0.0006  1.0000  -15.2119   0.0000   0.2342
  22.200   1.1480   0.15612   0.15433  -0.0243  0.0006  1.0000  -15.1443   0.0000   0.2355
  22.300   1.1459   0.15783   0.15606  -0.0255  0.0006  1.0000  -15.1468   0.0000   0.2364
  22.400   1.1454   0.15922   0.15745  -0.0264  0.0006  1.0000  -15.1876   0.0000   0.2370
  22.500   1.1452   0.16056   0.15881  -0.0274  0.0006  1.0000  -15.2320   0.0000   0.2376
  22.600   1.1448   0.16192   0.16017  -0.0283  0.0006  1.0000  -15.2744   0.0000   0.2382
  22.700   1.1442   0.16332   0.16159  -0.0293  0.0006  1.0000  -15.3103   0.0000   0.2388
  22.800   1.1387   0.16569   0.16399  -0.0310  0.0006  1.0000  -15.2242   0.0000   0.2403
  22.900   1.1377   0.16718   0.16549  -0.0320  0.0005  1.0000  -15.2471   0.0000   0.2410
  23.000   1.1375   0.16851   0.16683  -0.0330  0.0005  1.0000  -15.2885   0.0000   0.2416
  23.100   1.1375   0.16981   0.16814  -0.0339  0.0005  1.0000  -15.3330   0.0000   0.2422
  23.200   1.1374   0.17112   0.16946  -0.0349  0.0005  1.0000  -15.3757   0.0000   0.2428
  23.300   1.1371   0.17247   0.17082  -0.0359  0.0005  1.0000  -15.4123   0.0000   0.2434
  23.400   1.1332   0.17456   0.17293  -0.0374  0.0005  1.0000  -15.3532   0.0000   0.2447
  23.500   1.1313   0.17622   0.17460  -0.0386  0.0005  1.0000  -15.3473   0.0000   0.2456
  23.600   1.1312   0.17754   0.17594  -0.0396  0.0005  1.0000  -15.3834   0.0000   0.2463
  23.700   1.1312   0.17881   0.17722  -0.0405  0.0005  1.0000  -15.4253   0.0000   0.2469
  23.800   1.1313   0.18008   0.17850  -0.0415  0.0005  1.0000  -15.4668   0.0000   0.2475
  23.900   1.1312   0.18137   0.17980  -0.0425  0.0005  1.0000  -15.5042   0.0000   0.2481
  24.000   1.1310   0.18269   0.18113  -0.0435  0.0005  1.0000  -15.5375   0.0000   0.2488
  24.100   1.1263   0.18495   0.18341  -0.0451  0.0005  1.0000  -15.4446   0.0000   0.2503
  24.200   1.1257   0.18637   0.18485  -0.0462  0.0005  1.0000  -15.4625   0.0000   0.2510
  24.300   1.1258   0.18764   0.18613  -0.0472  0.0005  1.0000  -15.4986   0.0000   0.2517
  24.400   1.1260   0.18888   0.18738  -0.0482  0.0005  1.0000  -15.5378   0.0000   0.2523
  24.500   1.1261   0.19012   0.18863  -0.0491  0.0005  1.0000  -15.5753   0.0000   0.2529
  24.600   1.1263   0.19137   0.18988  -0.0501  0.0005  1.0000  -15.6121   0.0000   0.2535
  24.700   1.1262   0.19267   0.19120  -0.0511  0.0005  1.0000  -15.6400   0.0000   0.2542
  24.800   1.1216   0.19495   0.19351  -0.0529  0.0005  1.0000  -15.5331   0.0000   0.2558
  24.900   1.1212   0.19630   0.19487  -0.0539  0.0005  1.0000  -15.5517   0.0000   0.2565
  25.000   1.1214   0.19755   0.19613  -0.0549  0.0005  1.0000  -15.5833   0.0000   0.2572


