xflr5 v6.47

 Calculated polar for: Wing2

 1 1 Reynolds number fixed          Mach number fixed         

 xtrf =   1.000 (top)        1.000 (bottom)
 Mach =   0.000     Re =     3.000 e 6     Ncrit =   9.000

  alpha     CL        CD       CDp       Cm    Top Xtr Bot Xtr   Cpmin    Chinge    XCp    
 ------- -------- --------- --------- -------- ------- ------- -------- --------- ---------
 -25.000  -0.8664   0.36003   0.35934   0.1577  1.0000  0.0013  -1.6407   0.0000   0.4121
 -24.900  -0.8644   0.35819   0.35750   0.1569  1.0000  0.0013  -1.6272   0.0000   0.4118
 -24.800  -0.8624   0.35633   0.35564   0.1561  1.0000  0.0013  -1.6144   0.0000   0.4115
 -24.700  -0.8603   0.35447   0.35378   0.1553  1.0000  0.0013  -1.6023   0.0000   0.4111
 -24.600  -0.8582   0.35260   0.35191   0.1545  1.0000  0.0013  -1.5909   0.0000   0.4108
 -24.500  -0.8561   0.35073   0.35003   0.1536  1.0000  0.0013  -1.5801   0.0000   0.4104
 -24.400  -0.8540   0.34884   0.34815   0.1528  1.0000  0.0014  -1.5700   0.0000   0.4101
 -24.300  -0.8519   0.34696   0.34626   0.1520  1.0000  0.0014  -1.5604   0.0000   0.4097
 -24.200  -0.8497   0.34507   0.34437   0.1511  1.0000  0.0014  -1.5513   0.0000   0.4094
 -24.100  -0.8476   0.34317   0.34247   0.1503  1.0000  0.0014  -1.5428   0.0000   0.4090
 -24.000  -0.8454   0.34127   0.34057   0.1495  1.0000  0.0014  -1.5348   0.0000   0.4086
 -23.900  -0.8432   0.33937   0.33866   0.1486  1.0000  0.0014  -1.5272   0.0000   0.4082
 -23.800  -0.8409   0.33746   0.33676   0.1477  1.0000  0.0015  -1.5200   0.0000   0.4078
 -23.700  -0.8387   0.33555   0.33485   0.1469  1.0000  0.0015  -1.5133   0.0000   0.4074
 -23.600  -0.8364   0.33364   0.33293   0.1460  1.0000  0.0015  -1.5068   0.0000   0.4070
 -23.500  -0.8341   0.33173   0.33102   0.1452  1.0000  0.0015  -1.5008   0.0000   0.4066
 -23.400  -0.8318   0.32982   0.32910   0.1443  1.0000  0.0015  -1.4951   0.0000   0.4062
 -23.300  -0.8295   0.32790   0.32719   0.1434  1.0000  0.0016  -1.4898   0.0000   0.4058
 -23.200  -0.8272   0.32598   0.32527   0.1425  1.0000  0.0016  -1.4848   0.0000   0.4054
 -23.100  -0.8248   0.32407   0.32335   0.1417  1.0000  0.0016  -1.4802   0.0000   0.4050
 -23.000  -0.8224   0.32215   0.32143   0.1408  1.0000  0.0016  -1.4759   0.0000   0.4045
 -22.900  -0.8200   0.32023   0.31950   0.1399  1.0000  0.0017  -1.4720   0.0000   0.4041
 -22.800  -0.8176   0.31830   0.31758   0.1390  1.0000  0.0017  -1.4686   0.0000   0.4036
 -22.700  -0.8152   0.31638   0.31565   0.1381  1.0000  0.0017  -1.4658   0.0000   0.4032
 -22.600  -0.8127   0.31445   0.31372   0.1372  1.0000  0.0018  -1.4638   0.0000   0.4027
 -22.500  -0.8103   0.31250   0.31177   0.1363  1.0000  0.0018  -1.4628   0.0000   0.4022
 -22.400  -0.8078   0.31056   0.30983   0.1354  1.0000  0.0018  -1.4636   0.0000   0.4018
 -22.300  -0.8052   0.30854   0.30781   0.1344  1.0000  0.0019  -1.4692   0.0000   0.4013
 -20.400  -0.8219   0.18269   0.18157   0.0455  1.0000  0.0029  -9.1386   0.0000   0.2827
 -20.300  -0.8272   0.17954   0.17840   0.0436  1.0000  0.0030  -9.4163   0.0000   0.2800
 -20.200  -0.8356   0.17574   0.17457   0.0413  1.0000  0.0030  -9.7926   0.0000   0.2766
 -20.100  -0.8389   0.17335   0.17216   0.0399  1.0000  0.0030  -9.9501   0.0000   0.2747
 -20.000  -0.8460   0.17004   0.16883   0.0379  1.0000  0.0031  -10.2406   0.0000   0.2718
 -19.900  -0.8491   0.16776   0.16653   0.0365  1.0000  0.0031  -10.3726   0.0000   0.2701
 -19.800  -0.8537   0.16512   0.16388   0.0349  1.0000  0.0031  -10.5523   0.0000   0.2680
 -19.700  -0.8597   0.16221   0.16094   0.0331  1.0000  0.0031  -10.7687   0.0000   0.2656
 -19.600  -0.8636   0.15981   0.15852   0.0317  1.0000  0.0031  -10.9066   0.0000   0.2638
 -19.500  -0.8713   0.15656   0.15525   0.0297  1.0000  0.0031  -11.1606   0.0000   0.2611
 -19.400  -0.8760   0.15400   0.15267   0.0281  1.0000  0.0031  -11.3116   0.0000   0.2592
 -19.300  -0.8826   0.15106   0.14971   0.0262  1.0000  0.0031  -11.5122   0.0000   0.2569
 -19.200  -0.8913   0.14768   0.14630   0.0241  1.0000  0.0031  -11.7677   0.0000   0.2543
 -19.100  -0.9000   0.14433   0.14293   0.0220  1.0000  0.0031  -12.0122   0.0000   0.2517
 -19.000  -0.9116   0.14042   0.13898   0.0196  1.0000  0.0031  -12.3274   0.0000   0.2487
 -18.900  -0.9278   0.13562   0.13414   0.0165  1.0000  0.0031  -12.7542   0.0000   0.2450
 -18.800  -0.9494   0.12982   0.12829   0.0127  1.0000  0.0031  -13.3001   0.0000   0.2405
 -18.700  -0.9904   0.12037   0.11875   0.0065  1.0000  0.0030  -14.3040   0.0000   0.2335
 -18.600  -1.1505   0.08930   0.08730  -0.0141  1.0000  0.0027  -17.9557   0.0000   0.2141
 -18.500  -1.2113   0.07695   0.07476  -0.0222  1.0000  0.0026  -19.1987   0.0000   0.2082
 -18.400  -1.2435   0.07005   0.06774  -0.0266  1.0000  0.0026  -19.7899   0.0000   0.2053
 -18.300  -1.2663   0.06499   0.06260  -0.0299  1.0000  0.0026  -20.1683   0.0000   0.2033
 -18.200  -1.2845   0.06084   0.05837  -0.0324  1.0000  0.0025  -20.4419   0.0000   0.2019
 -18.100  -1.2997   0.05729   0.05475  -0.0345  1.0000  0.0025  -20.6486   0.0000   0.2008
 -18.000  -1.3129   0.05418   0.05157  -0.0363  1.0000  0.0025  -20.8073   0.0000   0.1999
 -17.900  -1.3245   0.05140   0.04874  -0.0378  1.0000  0.0025  -20.9304   0.0000   0.1993
 -17.800  -1.3349   0.04890   0.04618  -0.0391  1.0000  0.0025  -21.0254   0.0000   0.1988
 -17.700  -1.3443   0.04661   0.04384  -0.0402  1.0000  0.0025  -21.0973   0.0000   0.1984
 -17.600  -1.3530   0.04452   0.04170  -0.0410  1.0000  0.0025  -21.1503   0.0000   0.1982
 -17.500  -1.3609   0.04261   0.03974  -0.0417  1.0000  0.0025  -21.1874   0.0000   0.1981
 -17.400  -1.3684   0.04087   0.03795  -0.0421  1.0000  0.0025  -21.2102   0.0000   0.1982
 -17.300  -1.3753   0.03928   0.03631  -0.0424  1.0000  0.0025  -21.2203   0.0000   0.1984
 -17.200  -1.3817   0.03783   0.03482  -0.0425  1.0000  0.0025  -21.2185   0.0000   0.1987
 -17.100  -1.3877   0.03651   0.03346  -0.0424  1.0000  0.0025  -21.2055   0.0000   0.1991
 -17.000  -1.3933   0.03531   0.03222  -0.0422  1.0000  0.0026  -21.1826   0.0000   0.1996
 -16.900  -1.3984   0.03420   0.03107  -0.0418  1.0000  0.0026  -21.1505   0.0000   0.2002
 -16.800  -1.4031   0.03317   0.03000  -0.0413  1.0000  0.0026  -21.1096   0.0000   0.2008
 -16.700  -1.4075   0.03222   0.02902  -0.0407  1.0000  0.0026  -21.0608   0.0000   0.2015
 -16.600  -1.4116   0.03135   0.02811  -0.0400  1.0000  0.0026  -21.0064   0.0000   0.2023
 -16.500  -1.4154   0.03053   0.02726  -0.0392  1.0000  0.0026  -20.9454   0.0000   0.2031
 -16.400  -1.4185   0.02979   0.02648  -0.0383  1.0000  0.0026  -20.8738   0.0000   0.2040
 -16.300  -1.4218   0.02909   0.02575  -0.0373  1.0000  0.0026  -20.8021   0.0000   0.2049
 -16.200  -1.4244   0.02844   0.02507  -0.0363  1.0000  0.0026  -20.7200   0.0000   0.2059
 -16.100  -1.4269   0.02783   0.02443  -0.0352  1.0000  0.0027  -20.6356   0.0000   0.2068
 -16.000  -1.4289   0.02726   0.02383  -0.0341  1.0000  0.0027  -20.5430   0.0000   0.2078
 -15.900  -1.4311   0.02672   0.02326  -0.0329  1.0000  0.0027  -20.4516   0.0000   0.2089
 -15.800  -1.4323   0.02623   0.02274  -0.0317  1.0000  0.0027  -20.3462   0.0000   0.2099
 -15.700  -1.4341   0.02575   0.02223  -0.0304  1.0000  0.0027  -20.2484   0.0000   0.2110
 -15.600  -1.4350   0.02532   0.02177  -0.0291  1.0000  0.0027  -20.1369   0.0000   0.2121
 -15.500  -1.4357   0.02492   0.02134  -0.0278  1.0000  0.0027  -20.0230   0.0000   0.2132
 -15.400  -1.4370   0.02452   0.02091  -0.0263  1.0000  0.0028  -19.9164   0.0000   0.2144
 -15.300  -1.4372   0.02415   0.02051  -0.0249  1.0000  0.0028  -19.7956   0.0000   0.2155
 -15.200  -1.4372   0.02379   0.02013  -0.0235  1.0000  0.0028  -19.6710   0.0000   0.2166
 -15.100  -1.4379   0.02345   0.01977  -0.0220  1.0000  0.0028  -19.5542   0.0000   0.2179
 -15.000  -1.4385   0.02313   0.01942  -0.0203  1.0000  0.0028  -19.4372   0.0000   0.2192
 -14.900  -1.4376   0.02283   0.01909  -0.0189  1.0000  0.0028  -19.2995   0.0000   0.2203
 -14.800  -1.4365   0.02254   0.01879  -0.0174  1.0000  0.0029  -19.1608   0.0000   0.2215
 -14.700  -1.4359   0.02228   0.01849  -0.0159  1.0000  0.0029  -19.0268   0.0000   0.2227
 -14.600  -1.4360   0.02203   0.01822  -0.0141  1.0000  0.0029  -18.9028   0.0000   0.2241
 -14.500  -1.4376   0.02181   0.01798  -0.0120  1.0000  0.0029  -18.7950   0.0000   0.2257
 -14.400  -1.4380   0.02159   0.01773  -0.0101  1.0000  0.0029  -18.6746   0.0000   0.2272
 -14.300  -1.4345   0.02133   0.01745  -0.0090  1.0000  0.0030  -18.5064   0.0000   0.2281
 -14.200  -1.4301   0.02107   0.01717  -0.0080  1.0000  0.0030  -18.3280   0.0000   0.2289
 -14.100  -1.4254   0.02081   0.01689  -0.0070  1.0000  0.0030  -18.1455   0.0000   0.2297
 -14.000  -1.4202   0.02056   0.01662  -0.0061  1.0000  0.0030  -17.9595   0.0000   0.2305
 -13.900  -1.4148   0.02030   0.01635  -0.0053  1.0000  0.0031  -17.7705   0.0000   0.2312
 -13.800  -1.4090   0.02006   0.01608  -0.0045  1.0000  0.0031  -17.5789   0.0000   0.2319
 -13.700  -1.4030   0.01982   0.01581  -0.0037  1.0000  0.0031  -17.3849   0.0000   0.2326
 -13.600  -1.3968   0.01958   0.01556  -0.0030  1.0000  0.0031  -17.1888   0.0000   0.2333
 -13.500  -1.3903   0.01935   0.01530  -0.0023  1.0000  0.0031  -16.9908   0.0000   0.2339
 -13.400  -1.3836   0.01912   0.01506  -0.0016  1.0000  0.0032  -16.7913   0.0000   0.2346
 -13.300  -1.3767   0.01889   0.01481  -0.0009  1.0000  0.0032  -16.5904   0.0000   0.2352
 -13.200  -1.3697   0.01867   0.01457  -0.0003  1.0000  0.0032  -16.3882   0.0000   0.2358
 -13.100  -1.3624   0.01846   0.01434   0.0003  1.0000  0.0032  -16.1850   0.0000   0.2364
 -13.000  -1.3550   0.01824   0.01411   0.0009  1.0000  0.0032  -15.9809   0.0000   0.2370
 -12.900  -1.3474   0.01804   0.01389   0.0014  1.0000  0.0033  -15.7761   0.0000   0.2375
 -12.800  -1.3397   0.01783   0.01367   0.0020  1.0000  0.0033  -15.5706   0.0000   0.2381
 -12.700  -1.3319   0.01763   0.01345   0.0025  1.0000  0.0033  -15.3647   0.0000   0.2386
 -12.600  -1.3239   0.01744   0.01324   0.0030  1.0000  0.0033  -15.1584   0.0000   0.2392
 -12.500  -1.3158   0.01725   0.01304   0.0035  1.0000  0.0033  -14.9519   0.0000   0.2397
 -12.400  -1.3076   0.01706   0.01283   0.0039  1.0000  0.0033  -14.7453   0.0000   0.2402
 -12.300  -1.2993   0.01688   0.01264   0.0044  1.0000  0.0033  -14.5388   0.0000   0.2407
 -12.200  -1.2909   0.01670   0.01244   0.0048  1.0000  0.0034  -14.3324   0.0000   0.2412
 -12.100  -1.2835   0.01640   0.01212   0.0054  1.0000  0.0034  -14.1482   0.0000   0.2419
 -12.000  -1.2765   0.01607   0.01174   0.0061  1.0000  0.0035  -13.9726   0.0000   0.2425
 -11.900  -1.2689   0.01577   0.01142   0.0067  1.0000  0.0036  -13.7887   0.0000   0.2431
 -11.800  -1.2609   0.01551   0.01113   0.0072  1.0000  0.0037  -13.5994   0.0000   0.2437
 -11.700  -1.2526   0.01528   0.01088   0.0076  1.0000  0.0038  -13.4061   0.0000   0.2443
 -11.600  -1.2441   0.01506   0.01065   0.0081  1.0000  0.0038  -13.2101   0.0000   0.2448
 -11.500  -1.2354   0.01486   0.01043   0.0085  1.0000  0.0039  -13.0123   0.0000   0.2453
 -11.400  -1.2266   0.01467   0.01023   0.0089  1.0000  0.0040  -12.8136   0.0000   0.2458
 -11.300  -1.2176   0.01448   0.01003   0.0093  1.0000  0.0040  -12.6146   0.0000   0.2463
 -11.200  -1.2086   0.01431   0.00984   0.0096  1.0000  0.0041  -12.4157   0.0000   0.2468
 -11.100  -1.1994   0.01413   0.00966   0.0100  1.0000  0.0042  -12.2172   0.0000   0.2473
 -11.000  -1.1902   0.01396   0.00948   0.0103  1.0000  0.0042  -12.0191   0.0000   0.2478
 -10.900  -1.1809   0.01380   0.00931   0.0107  1.0000  0.0043  -11.8218   0.0000   0.2483
 -10.800  -1.1715   0.01364   0.00914   0.0110  1.0000  0.0044  -11.6251   0.0000   0.2488
 -10.700  -1.1621   0.01348   0.00897   0.0113  1.0000  0.0044  -11.4291   0.0000   0.2492
 -10.600  -1.1526   0.01333   0.00881   0.0116  1.0000  0.0045  -11.2336   0.0000   0.2497
 -10.500  -1.1430   0.01318   0.00865   0.0119  1.0000  0.0045  -11.0388   0.0000   0.2502
 -10.400  -1.1333   0.01304   0.00850   0.0122  1.0000  0.0046  -10.8449   0.0000   0.2506
 -10.300  -1.1236   0.01290   0.00835   0.0125  1.0000  0.0047  -10.6519   0.0000   0.2511
 -10.200  -1.1139   0.01276   0.00820   0.0128  1.0000  0.0047  -10.4599   0.0000   0.2516
 -10.100  -1.1041   0.01263   0.00806   0.0130  1.0000  0.0048  -10.2689   0.0000   0.2520
 -10.000  -1.0942   0.01250   0.00792   0.0133  1.0000  0.0048  -10.0790   0.0000   0.2525
  -9.900  -1.0843   0.01237   0.00779   0.0135  1.0000  0.0049  -9.8901   0.0000   0.2530
  -9.800  -1.0744   0.01225   0.00766   0.0138  1.0000  0.0049  -9.7111   0.0000   0.2534
  -9.700  -1.0644   0.01213   0.00753   0.0140  1.0000  0.0049  -9.5346   0.0000   0.2539
  -9.600  -1.0546   0.01198   0.00737   0.0143  1.0000  0.0050  -9.3645   0.0000   0.2544
  -9.500  -1.0453   0.01175   0.00712   0.0146  1.0000  0.0052  -9.2072   0.0000   0.2550
  -9.400  -1.0356   0.01157   0.00693   0.0150  1.0000  0.0054  -9.0439   0.0000   0.2555
  -9.300  -1.0258   0.01141   0.00677   0.0152  1.0000  0.0056  -8.8775   0.0000   0.2560
  -9.200  -1.0158   0.01127   0.00662   0.0155  1.0000  0.0057  -8.7097   0.0000   0.2565
  -9.100  -1.0058   0.01114   0.00648   0.0157  1.0000  0.0059  -8.5418   0.0000   0.2570
  -9.000  -0.9957   0.01101   0.00636   0.0159  1.0000  0.0060  -8.3744   0.0000   0.2575
  -8.900  -0.9855   0.01089   0.00623   0.0162  1.0000  0.0062  -8.2079   0.0000   0.2580
  -8.800  -0.9752   0.01078   0.00612   0.0164  1.0000  0.0063  -8.0422   0.0000   0.2585
  -8.700  -0.9647   0.01067   0.00600   0.0165  0.9969  0.0064  -7.8756   0.0000   0.2590
  -8.600  -0.9543   0.01099   0.00587   0.0168  0.7839  0.0065  -7.7108   0.0000   0.2595
  -8.500  -0.9444   0.01099   0.00576   0.0170  0.7452  0.0066  -7.5522   0.0000   0.2601
  -8.400  -0.9342   0.01094   0.00565   0.0172  0.7251  0.0067  -7.3920   0.0000   0.2606
  -8.300  -0.9238   0.01089   0.00555   0.0174  0.7111  0.0068  -7.2319   0.0000   0.2611
  -8.200  -0.9135   0.01081   0.00544   0.0176  0.7002  0.0069  -7.0753   0.0000   0.2617
  -8.100  -0.9036   0.01065   0.00524   0.0179  0.6921  0.0073  -6.9293   0.0000   0.2623
  -8.000  -0.8934   0.01053   0.00510   0.0181  0.6845  0.0077  -6.7784   0.0000   0.2628
  -7.900  -0.8830   0.01043   0.00498   0.0183  0.6779  0.0079  -6.6262   0.0000   0.2634
  -7.800  -0.8726   0.01033   0.00487   0.0185  0.6725  0.0082  -6.4742   0.0000   0.2639
  -7.700  -0.8621   0.01025   0.00477   0.0186  0.6669  0.0084  -6.3234   0.0000   0.2645
  -7.600  -0.8516   0.01016   0.00466   0.0188  0.6618  0.0086  -6.1735   0.0000   0.2650
  -7.500  -0.8409   0.01008   0.00457   0.0190  0.6576  0.0088  -6.0244   0.0000   0.2656
  -7.400  -0.8303   0.01001   0.00448   0.0191  0.6529  0.0090  -5.8767   0.0000   0.2662
  -7.200  -0.8090   0.00983   0.00427   0.0194  0.6447  0.0094  -5.6090   0.0000   0.2673
  -7.100  -0.7986   0.00972   0.00414   0.0196  0.6407  0.0100  -5.4795   0.0000   0.2680
  -7.000  -0.7880   0.00962   0.00404   0.0198  0.6366  0.0105  -5.3484   0.0000   0.2686
  -6.800  -0.7666   0.00946   0.00385   0.0201  0.6292  0.0113  -5.0869   0.0000   0.2698
  -6.700  -0.7558   0.00939   0.00377   0.0202  0.6254  0.0116  -4.9572   0.0000   0.2705
  -6.600  -0.7449   0.00933   0.00370   0.0203  0.6213  0.0117  -4.8283   0.0000   0.2711
  -6.500  -0.7343   0.00923   0.00358   0.0205  0.6176  0.0126  -4.7060   0.0000   0.2718
  -6.400  -0.7236   0.00913   0.00349   0.0206  0.6143  0.0133  -4.5820   0.0000   0.2725
  -6.300  -0.7129   0.00905   0.00340   0.0207  0.6102  0.0139  -4.4584   0.0000   0.2732
  -6.200  -0.7020   0.00899   0.00332   0.0209  0.6061  0.0144  -4.3355   0.0000   0.2739
  -6.100  -0.6911   0.00893   0.00325   0.0210  0.6025  0.0148  -4.2133   0.0000   0.2746
  -6.000  -0.6803   0.00883   0.00315   0.0211  0.5987  0.0158  -4.0950   0.0000   0.2754
  -5.900  -0.6695   0.00875   0.00307   0.0212  0.5943  0.0168  -3.9769   0.0000   0.2761
  -5.800  -0.6587   0.00868   0.00299   0.0214  0.5901  0.0176  -3.8594   0.0000   0.2769
  -5.700  -0.6477   0.00862   0.00292   0.0215  0.5861  0.0182  -3.7510   0.0000   0.2777
  -5.600  -0.6368   0.00854   0.00284   0.0216  0.5814  0.0196  -3.6462   0.0000   0.2785
  -5.500  -0.6260   0.00847   0.00276   0.0217  0.5769  0.0209  -3.5418   0.0000   0.2794
  -5.400  -0.6150   0.00841   0.00269   0.0218  0.5724  0.0219  -3.4374   0.0000   0.2802
  -5.300  -0.6041   0.00834   0.00261   0.0219  0.5673  0.0237  -3.3354   0.0000   0.2811
  -5.200  -0.5932   0.00827   0.00254   0.0220  0.5626  0.0253  -3.2341   0.0000   0.2820
  -5.100  -0.5822   0.00821   0.00248   0.0221  0.5577  0.0265  -3.1332   0.0000   0.2830
  -5.000  -0.5713   0.00814   0.00240   0.0222  0.5523  0.0288  -3.0345   0.0000   0.2840
  -4.900  -0.5603   0.00808   0.00233   0.0223  0.5474  0.0306  -2.9361   0.0000   0.2850
  -4.800  -0.5494   0.00801   0.00227   0.0224  0.5420  0.0327  -2.8391   0.0000   0.2860
  -4.700  -0.5384   0.00795   0.00220   0.0225  0.5366  0.0352  -2.7433   0.0000   0.2871
  -4.600  -0.5274   0.00789   0.00214   0.0226  0.5315  0.0377  -2.6484   0.0000   0.2882
  -4.500  -0.5165   0.00782   0.00208   0.0227  0.5257  0.0408  -2.5549   0.0000   0.2893
  -4.400  -0.5055   0.00777   0.00202   0.0228  0.5205  0.0439  -2.4624   0.0000   0.2905
  -4.300  -0.4945   0.00770   0.00196   0.0229  0.5148  0.0471  -2.3719   0.0000   0.2918
  -4.200  -0.4834   0.00765   0.00190   0.0230  0.5092  0.0504  -2.2893   0.0000   0.2931
  -4.100  -0.4724   0.00759   0.00185   0.0231  0.5038  0.0539  -2.2075   0.0000   0.2944
  -4.000  -0.4614   0.00754   0.00179   0.0231  0.4976  0.0581  -2.1270   0.0000   0.2958
  -3.900  -0.4503   0.00749   0.00174   0.0232  0.4924  0.0619  -2.0470   0.0000   0.2973
  -3.800  -0.4393   0.00742   0.00169   0.0233  0.4865  0.0669  -1.9684   0.0000   0.2988
  -3.700  -0.4282   0.00739   0.00164   0.0234  0.4809  0.0704  -1.8901   0.0000   0.3004
  -3.600  -0.4171   0.00733   0.00159   0.0235  0.4752  0.0754  -1.8156   0.0000   0.3021
  -3.400  -0.3949   0.00724   0.00151   0.0236  0.4636  0.0849  -1.6779   0.0000   0.3057
  -3.300  -0.3838   0.00720   0.00147   0.0236  0.4573  0.0891  -1.6101   0.0000   0.3077
  -3.200  -0.3727   0.00715   0.00143   0.0237  0.4521  0.0944  -1.5434   0.0000   0.3097
  -3.100  -0.3615   0.00711   0.00139   0.0238  0.4462  0.0996  -1.4781   0.0000   0.3119
  -3.000  -0.3504   0.00707   0.00135   0.0238  0.4402  0.1051  -1.4187   0.0000   0.3142
  -2.900  -0.3393   0.00702   0.00131   0.0239  0.4345  0.1112  -1.3601   0.0000   0.3167
  -2.700  -0.3170   0.00694   0.00124   0.0240  0.4232  0.1248  -1.2465   0.0000   0.3221
  -2.600  -0.3059   0.00689   0.00120   0.0241  0.4174  0.1325  -1.1949   0.0000   0.3251
  -2.500  -0.2948   0.00685   0.00117   0.0241  0.4119  0.1407  -1.1439   0.0000   0.3283
  -2.400  -0.2837   0.00680   0.00113   0.0242  0.4063  0.1498  -1.0947   0.0000   0.3318
  -2.300  -0.2727   0.00675   0.00110   0.0243  0.3999  0.1606  -1.0494   0.0000   0.3355
  -2.200  -0.2616   0.00668   0.00106   0.0243  0.3951  0.1722  -1.0044   0.0000   0.3396
  -2.100  -0.2506   0.00663   0.00103   0.0244  0.3893  0.1849  -0.9626   0.0000   0.3440
  -2.000  -0.2395   0.00657   0.00100   0.0244  0.3844  0.1985  -0.9224   0.0000   0.3488
  -1.900  -0.2285   0.00650   0.00097   0.0245  0.3795  0.2133  -0.8838   0.0000   0.3541
  -1.800  -0.2176   0.00643   0.00093   0.0246  0.3736  0.2299  -0.8477   0.0000   0.3599
  -1.700  -0.2066   0.00635   0.00090   0.0246  0.3690  0.2472  -0.8125   0.0000   0.3663
  -1.600  -0.1956   0.00629   0.00088   0.0247  0.3635  0.2650  -0.7798   0.0000   0.3734
  -1.500  -0.1847   0.00622   0.00085   0.0248  0.3582  0.2832  -0.7479   0.0000   0.3813
  -1.400  -0.1737   0.00614   0.00082   0.0248  0.3540  0.3020  -0.7181   0.0000   0.3902
  -1.300  -0.1627   0.00609   0.00080   0.0249  0.3492  0.3195  -0.6889   0.0000   0.4004
  -1.200  -0.1516   0.00604   0.00078   0.0249  0.3445  0.3353  -0.6615   0.0000   0.4120
  -1.100  -0.1405   0.00599   0.00077   0.0250  0.3404  0.3507  -0.6347   0.0000   0.4255
  -1.000  -0.1294   0.00595   0.00075   0.0250  0.3353  0.3648  -0.6096   0.0000   0.4413
  -0.900  -0.1182   0.00591   0.00074   0.0251  0.3307  0.3784  -0.5849   0.0000   0.4601
  -0.800  -0.1070   0.00587   0.00073   0.0251  0.3266  0.3916  -0.5716   0.0000   0.4829
  -0.700  -0.0958   0.00585   0.00072   0.0252  0.3219  0.4039  -0.5859   0.0000   0.5110
  -0.600  -0.0846   0.00582   0.00071   0.0252  0.3178  0.4158  -0.6002   0.0000   0.5465
  -0.500  -0.0733   0.00579   0.00071   0.0252  0.3147  0.4271  -0.6147   0.0000   0.5931
  -0.400  -0.0620   0.00577   0.00070   0.0252  0.3107  0.4376  -0.6293   0.0000   0.6568
  -0.300  -0.0508   0.00576   0.00070   0.0253  0.3061  0.4486  -0.6439   0.0000   0.7484
  -0.200  -0.0395   0.00573   0.00069   0.0253  0.3029  0.4595  -0.6590   0.0000   0.8926
  -0.100  -0.0282   0.00571   0.00069   0.0253  0.2991  0.4696  -0.6746   0.0000   1.1528
   0.000  -0.0169   0.00571   0.00069   0.0253  0.2947  0.4789  -0.6902   0.0000   1.7632
   0.100  -0.0056   0.00569   0.00069   0.0254  0.2909  0.4889  -0.7059   0.0000   4.8507
   0.200   0.0058   0.00567   0.00069   0.0254  0.2879  0.4991  -0.7217   0.0000  -4.2005
   0.300   0.0171   0.00566   0.00069   0.0254  0.2845  0.5091  -0.7375   0.0000  -1.2545
   0.400   0.0284   0.00565   0.00069   0.0254  0.2807  0.5192  -0.7534   0.0000  -0.6575
   0.500   0.0397   0.00564   0.00069   0.0254  0.2777  0.5294  -0.7693   0.0000  -0.4008
   0.600   0.0510   0.00561   0.00069   0.0255  0.2751  0.5401  -0.7853   0.0000  -0.2577
   0.700   0.0623   0.00560   0.00070   0.0255  0.2718  0.5515  -0.8014   0.0000  -0.1669
   0.800   0.0735   0.00558   0.00070   0.0255  0.2678  0.5644  -0.8182   0.0000  -0.1043
   0.900   0.0847   0.00555   0.00070   0.0255  0.2647  0.5789  -0.8352   0.0000  -0.0585
   1.000   0.0958   0.00551   0.00070   0.0256  0.2620  0.5970  -0.8522   0.0000  -0.0237
   1.100   0.1068   0.00545   0.00070   0.0257  0.2587  0.6211  -0.8691   0.0000   0.0032
   1.200   0.1175   0.00537   0.00071   0.0258  0.2551  0.6525  -0.8859   0.0000   0.0244
   1.300   0.1282   0.00528   0.00071   0.0259  0.2522  0.6865  -0.9028   0.0000   0.0418
   1.400   0.1390   0.00521   0.00072   0.0260  0.2502  0.7157  -0.9198   0.0000   0.0567
   1.500   0.1498   0.00515   0.00073   0.0261  0.2477  0.7404  -0.9369   0.0000   0.0695
   1.600   0.1607   0.00512   0.00075   0.0262  0.2448  0.7605  -0.9541   0.0000   0.0808
   1.700   0.1717   0.00510   0.00076   0.0263  0.2414  0.7773  -0.9715   0.0000   0.0908
   1.800   0.1826   0.00507   0.00078   0.0265  0.2392  0.7937  -0.9888   0.0000   0.0993
   1.900   0.1938   0.00506   0.00080   0.0265  0.2373  0.8051  -1.0066   0.0000   0.1074
   2.000   0.2047   0.00504   0.00081   0.0266  0.2348  0.8189  -1.0241   0.0000   0.1141
   2.100   0.2159   0.00505   0.00083   0.0267  0.2319  0.8281  -1.0429   0.0000   0.1206
   2.200   0.2269   0.00505   0.00085   0.0268  0.2284  0.8384  -1.0616   0.0000   0.1262
   2.300   0.2379   0.00504   0.00087   0.0269  0.2264  0.8485  -1.0804   0.0000   0.1312
   2.400   0.2492   0.00505   0.00089   0.0270  0.2243  0.8557  -1.0996   0.0000   0.1361
   2.500   0.2605   0.00507   0.00091   0.0270  0.2217  0.8616  -1.1188   0.0000   0.1407
   2.600   0.2713   0.00507   0.00094   0.0271  0.2189  0.8712  -1.1376   0.0000   0.1442
   2.700   0.2822   0.00509   0.00096   0.0272  0.2157  0.8789  -1.1566   0.0000   0.1477
   2.800   0.2935   0.00510   0.00098   0.0273  0.2142  0.8848  -1.1760   0.0000   0.1512
   2.900   0.3049   0.00512   0.00100   0.0273  0.2125  0.8890  -1.1956   0.0000   0.1546
   3.000   0.3161   0.00514   0.00102   0.0274  0.2105  0.8942  -1.2152   0.0000   0.1576
   3.100   0.3269   0.00515   0.00105   0.0275  0.2083  0.9024  -1.2343   0.0000   0.1599
   3.200   0.3378   0.00517   0.00108   0.0277  0.2056  0.9089  -1.2536   0.0000   0.1622
   3.300   0.3489   0.00520   0.00111   0.0278  0.2031  0.9143  -1.2732   0.0000   0.1646
   3.400   0.3601   0.00521   0.00113   0.0278  0.2019  0.9186  -1.2930   0.0000   0.1669
   3.500   0.3715   0.00524   0.00116   0.0278  0.2003  0.9219  -1.3130   0.0000   0.1691
   3.600   0.3828   0.00527   0.00118   0.0279  0.1984  0.9242  -1.3331   0.0000   0.1713
   3.700   0.3941   0.00530   0.00121   0.0279  0.1963  0.9302  -1.3531   0.0000   0.1732
   3.800   0.4052   0.00533   0.00125   0.0280  0.1939  0.9367  -1.3730   0.0000   0.1749
   3.900   0.4164   0.00537   0.00129   0.0280  0.1913  0.9421  -1.3931   0.0000   0.1766
   4.000   0.4278   0.00539   0.00132   0.0281  0.1903  0.9468  -1.4135   0.0000   0.1783
   4.100   0.4391   0.00541   0.00135   0.0281  0.1889  0.9509  -1.4341   0.0000   0.1798
   4.200   0.4504   0.00545   0.00138   0.0281  0.1872  0.9542  -1.4557   0.0000   0.1813
   4.300   0.4617   0.00549   0.00141   0.0282  0.1853  0.9570  -1.4773   0.0000   0.1827
   4.400   0.4728   0.00554   0.00145   0.0282  0.1830  0.9590  -1.4988   0.0000   0.1840
   4.500   0.4839   0.00559   0.00148   0.0283  0.1803  0.9606  -1.5203   0.0000   0.1852
   4.600   0.4963   0.00562   0.00151   0.0281  0.1790  0.9638  -1.5433   0.0000   0.1870
   4.700   0.5093   0.00565   0.00154   0.0277  0.1778  0.9673  -1.5671   0.0000   0.1891
   4.800   0.5224   0.00568   0.00157   0.0273  0.1763  0.9703  -1.5912   0.0000   0.1912
   4.900   0.5356   0.00572   0.00161   0.0269  0.1746  0.9730  -1.6153   0.0000   0.1932
   5.000   0.5488   0.00577   0.00165   0.0265  0.1728  0.9755  -1.6396   0.0000   0.1951
   5.100   0.5618   0.00582   0.00169   0.0261  0.1706  0.9776  -1.6638   0.0000   0.1969
   5.200   0.5749   0.00587   0.00173   0.0257  0.1682  0.9796  -1.6879   0.0000   0.1985
   5.300   0.5880   0.00590   0.00176   0.0253  0.1675  0.9815  -1.7124   0.0000   0.2001
   5.400   0.6010   0.00594   0.00180   0.0250  0.1665  0.9831  -1.7369   0.0000   0.2016
   5.500   0.6139   0.00598   0.00183   0.0246  0.1653  0.9845  -1.7614   0.0000   0.2030
   5.600   0.6267   0.00602   0.00187   0.0243  0.1636  0.9858  -1.7858   0.0000   0.2042
   5.700   0.6394   0.00609   0.00192   0.0239  0.1610  0.9871  -1.8102   0.0000   0.2054
   5.800   0.6520   0.00616   0.00197   0.0236  0.1574  0.9882  -1.8345   0.0000   0.2066
   5.900   0.6648   0.00620   0.00201   0.0233  0.1560  0.9893  -1.8592   0.0000   0.2077
   6.000   0.6775   0.00624   0.00205   0.0230  0.1543  0.9903  -1.8840   0.0000   0.2087
   6.100   0.6901   0.00630   0.00209   0.0227  0.1518  0.9912  -1.9088   0.0000   0.2097
   6.200   0.7026   0.00638   0.00215   0.0224  0.1486  0.9921  -1.9335   0.0000   0.2106
   6.300   0.7151   0.00644   0.00220   0.0221  0.1460  0.9929  -1.9595   0.0000   0.2115
   6.400   0.7278   0.00648   0.00224   0.0218  0.1448  0.9936  -1.9859   0.0000   0.2124
   6.500   0.7403   0.00653   0.00229   0.0215  0.1426  0.9942  -2.0686   0.0000   0.2132
   6.600   0.7528   0.00660   0.00234   0.0212  0.1400  0.9948  -2.1714   0.0000   0.2140
   6.700   0.7653   0.00668   0.00240   0.0209  0.1371  0.9953  -2.2756   0.0000   0.2147
   6.800   0.7778   0.00674   0.00246   0.0206  0.1350  0.9958  -2.3819   0.0000   0.2154
   6.900   0.7904   0.00679   0.00251   0.0203  0.1328  0.9963  -2.4898   0.0000   0.2161
   7.000   0.8028   0.00688   0.00257   0.0200  0.1295  0.9967  -2.5984   0.0000   0.2168
   7.100   0.8153   0.00698   0.00265   0.0197  0.1253  0.9970  -2.7077   0.0000   0.2175
   7.200   0.8279   0.00704   0.00270   0.0194  0.1228  0.9974  -2.8196   0.0000   0.2181
   7.300   0.8402   0.00718   0.00280   0.0191  0.1167  0.9977  -2.9306   0.0000   0.2187
   7.400   0.8527   0.00729   0.00289   0.0187  0.1109  0.9980  -3.0429   0.0000   0.2194
   7.500   0.8648   0.00748   0.00302   0.0184  0.1012  0.9983  -3.1526   0.0000   0.2199
   7.600   0.8745   0.00818   0.00349   0.0182  0.0649  0.9986  -3.2445   0.0000   0.2203
   7.700   0.8818   0.00944   0.00445   0.0182  0.0074  0.9990  -3.3225   0.0000   0.2204
   7.800   0.8937   0.00962   0.00462   0.0180  0.0046  0.9992  -3.4453   0.0000   0.2208
   7.900   0.9057   0.00976   0.00475   0.0178  0.0035  0.9993  -3.5649   0.0000   0.2213
   8.000   0.9177   0.00987   0.00487   0.0175  0.0032  0.9995  -3.6927   0.0000   0.2216
   8.100   0.9295   0.00999   0.00500   0.0173  0.0030  0.9996  -3.8211   0.0000   0.2220
   8.200   0.9411   0.01012   0.00513   0.0172  0.0027  0.9997  -3.9497   0.0000   0.2223
   8.300   0.9527   0.01025   0.00526   0.0170  0.0026  0.9998  -4.0770   0.0000   0.2225
   8.400   0.9642   0.01039   0.00541   0.0169  0.0024  0.9999  -4.2032   0.0000   0.2228
   8.500   0.9756   0.01053   0.00556   0.0168  0.0023  1.0000  -4.3297   0.0000   0.2230
   8.600   0.9847   0.01068   0.00572   0.0171  0.0022  1.0000  -4.4438   0.0000   0.2226
   8.700   0.9934   0.01083   0.00589   0.0175  0.0022  1.0000  -4.5566   0.0000   0.2223
   8.800   1.0022   0.01099   0.00607   0.0180  0.0021  1.0000  -4.6696   0.0000   0.2219
   8.900   1.0110   0.01117   0.00627   0.0184  0.0021  1.0000  -4.7827   0.0000   0.2215
   9.000   1.0200   0.01133   0.00645   0.0187  0.0020  1.0000  -4.9033   0.0000   0.2212
   9.100   1.0292   0.01146   0.00659   0.0190  0.0020  1.0000  -5.0329   0.0000   0.2209
   9.200   1.0385   0.01160   0.00674   0.0193  0.0020  1.0000  -5.1641   0.0000   0.2207
   9.300   1.0477   0.01174   0.00689   0.0196  0.0020  1.0000  -5.2967   0.0000   0.2204
   9.400   1.0570   0.01189   0.00704   0.0199  0.0020  1.0000  -5.4306   0.0000   0.2202
   9.500   1.0663   0.01203   0.00720   0.0202  0.0020  1.0000  -5.5657   0.0000   0.2200
   9.600   1.0755   0.01218   0.00736   0.0205  0.0020  1.0000  -5.7019   0.0000   0.2197
   9.700   1.0848   0.01234   0.00753   0.0208  0.0020  1.0000  -5.8392   0.0000   0.2195
   9.800   1.0939   0.01250   0.00770   0.0210  0.0020  1.0000  -5.9774   0.0000   0.2193
   9.900   1.1031   0.01266   0.00788   0.0213  0.0020  1.0000  -6.1166   0.0000   0.2190
  10.000   1.1121   0.01283   0.00806   0.0216  0.0019  1.0000  -6.2566   0.0000   0.2188
  10.100   1.1212   0.01300   0.00824   0.0219  0.0019  1.0000  -6.3973   0.0000   0.2185
  10.200   1.1301   0.01317   0.00843   0.0222  0.0019  1.0000  -6.5388   0.0000   0.2183
  10.300   1.1390   0.01335   0.00862   0.0225  0.0019  1.0000  -6.6810   0.0000   0.2180
  10.400   1.1478   0.01353   0.00881   0.0229  0.0019  1.0000  -6.8237   0.0000   0.2177
  10.500   1.1565   0.01371   0.00901   0.0232  0.0019  1.0000  -6.9671   0.0000   0.2175
  10.600   1.1652   0.01390   0.00922   0.0235  0.0019  1.0000  -7.1109   0.0000   0.2172
  10.700   1.1737   0.01410   0.00943   0.0239  0.0019  1.0000  -7.2552   0.0000   0.2169
  10.800   1.1822   0.01430   0.00964   0.0242  0.0018  1.0000  -7.3998   0.0000   0.2166
  10.900   1.1906   0.01450   0.00986   0.0246  0.0018  1.0000  -7.5449   0.0000   0.2163
  11.000   1.1988   0.01471   0.01009   0.0250  0.0018  1.0000  -7.6901   0.0000   0.2160
  11.100   1.2070   0.01492   0.01032   0.0253  0.0018  1.0000  -7.8355   0.0000   0.2157
  11.200   1.2150   0.01513   0.01055   0.0257  0.0018  1.0000  -7.9810   0.0000   0.2153
  11.300   1.2229   0.01535   0.01079   0.0262  0.0018  1.0000  -8.1266   0.0000   0.2150
  11.400   1.2306   0.01558   0.01103   0.0266  0.0017  1.0000  -8.2721   0.0000   0.2146
  11.500   1.2383   0.01581   0.01128   0.0270  0.0017  1.0000  -8.4175   0.0000   0.2142
  11.600   1.2457   0.01604   0.01153   0.0275  0.0017  1.0000  -8.5628   0.0000   0.2138
  11.700   1.2531   0.01628   0.01179   0.0279  0.0017  1.0000  -8.7077   0.0000   0.2134
  11.800   1.2602   0.01652   0.01205   0.0284  0.0017  1.0000  -8.8523   0.0000   0.2130
  11.900   1.2672   0.01677   0.01232   0.0289  0.0017  1.0000  -8.9965   0.0000   0.2126
  12.000   1.2740   0.01702   0.01259   0.0295  0.0016  1.0000  -9.1402   0.0000   0.2121
  12.100   1.2807   0.01728   0.01287   0.0300  0.0016  1.0000  -9.2831   0.0000   0.2117
  12.200   1.2871   0.01754   0.01315   0.0306  0.0016  1.0000  -9.4254   0.0000   0.2112
  12.300   1.2933   0.01781   0.01344   0.0312  0.0016  1.0000  -9.5667   0.0000   0.2107
  12.400   1.2993   0.01809   0.01373   0.0318  0.0016  1.0000  -9.7070   0.0000   0.2102
  12.500   1.3051   0.01837   0.01403   0.0324  0.0015  1.0000  -9.8461   0.0000   0.2097
  12.600   1.3106   0.01865   0.01434   0.0330  0.0015  1.0000  -9.9840   0.0000   0.2091
  12.700   1.3159   0.01895   0.01466   0.0337  0.0015  1.0000  -10.1204   0.0000   0.2085
  12.800   1.3209   0.01925   0.01499   0.0344  0.0015  1.0000  -10.2552   0.0000   0.2080
  12.900   1.3256   0.01957   0.01532   0.0351  0.0015  1.0000  -10.3882   0.0000   0.2074
  13.000   1.3300   0.01990   0.01567   0.0358  0.0015  1.0000  -10.5192   0.0000   0.2068
  13.100   1.3341   0.02023   0.01604   0.0365  0.0014  1.0000  -10.6480   0.0000   0.2061
  13.200   1.3379   0.02059   0.01642   0.0372  0.0014  1.0000  -10.7738   0.0000   0.2055
  13.300   1.3411   0.02098   0.01683   0.0380  0.0014  1.0000  -10.8951   0.0000   0.2048
  13.400   1.3388   0.02134   0.01722   0.0397  0.0014  1.0000  -10.9670   0.0000   0.2034
  13.500   1.3370   0.02175   0.01765   0.0412  0.0014  1.0000  -11.0418   0.0000   0.2020
  13.600   1.3361   0.02223   0.01817   0.0422  0.0014  1.0000  -11.1235   0.0000   0.2010
  13.700   1.3347   0.02285   0.01882   0.0430  0.0014  1.0000  -11.1974   0.0000   0.2002
  13.800   1.3326   0.02364   0.01965   0.0434  0.0014  1.0000  -11.2609   0.0000   0.1998
  13.900   1.3296   0.02474   0.02080   0.0431  0.0013  1.0000  -11.3088   0.0000   0.1997
  14.000   1.3267   0.02610   0.02220   0.0422  0.0013  1.0000  -11.3524   0.0000   0.2000
  14.100   1.3242   0.02749   0.02364   0.0414  0.0013  1.0000  -11.3992   0.0000   0.2004
  14.200   1.3216   0.02892   0.02511   0.0405  0.0013  1.0000  -11.4441   0.0000   0.2008
  14.300   1.3185   0.03041   0.02664   0.0398  0.0013  1.0000  -11.4828   0.0000   0.2011
  14.400   1.3147   0.03197   0.02825   0.0390  0.0013  1.0000  -11.5137   0.0000   0.2013
  14.500   1.3102   0.03363   0.02995   0.0383  0.0013  1.0000  -11.5361   0.0000   0.2016
  14.600   1.3049   0.03539   0.03175   0.0374  0.0013  1.0000  -11.5484   0.0000   0.2019
  14.700   1.2990   0.03725   0.03366   0.0366  0.0013  1.0000  -11.5512   0.0000   0.2022
  14.800   1.2923   0.03921   0.03566   0.0357  0.0013  1.0000  -11.5445   0.0000   0.2025
  14.900   1.2848   0.04127   0.03777   0.0348  0.0013  1.0000  -11.5259   0.0000   0.2029
  15.000   1.2767   0.04343   0.03998   0.0338  0.0013  1.0000  -11.4996   0.0000   0.2032
  15.100   1.2680   0.04572   0.04231   0.0327  0.0013  1.0000  -11.4629   0.0000   0.2036
  15.200   1.2586   0.04811   0.04475   0.0317  0.0013  1.0000  -11.4168   0.0000   0.2041
  15.300   1.2489   0.05056   0.04724   0.0305  0.0013  1.0000  -11.3655   0.0000   0.2046
  15.400   1.2384   0.05310   0.04984   0.0294  0.0013  1.0000  -11.3033   0.0000   0.2051
  15.500   1.2275   0.05574   0.05253   0.0282  0.0013  1.0000  -11.2322   0.0000   0.2057
  15.600   1.2163   0.05845   0.05528   0.0269  0.0013  1.0000  -11.1563   0.0000   0.2063
  15.700   1.2050   0.06120   0.05808   0.0256  0.0013  1.0000  -11.0772   0.0000   0.2070
  15.800   1.1936   0.06399   0.06092   0.0243  0.0013  1.0000  -10.9949   0.0000   0.2077
  15.900   1.1823   0.06679   0.06376   0.0230  0.0013  1.0000  -10.9115   0.0000   0.2084
  16.000   1.1715   0.06957   0.06659   0.0217  0.0013  1.0000  -10.8327   0.0000   0.2092
  16.100   1.1614   0.07231   0.06936   0.0203  0.0013  1.0000  -10.7611   0.0000   0.2099
  16.200   1.1511   0.07512   0.07222   0.0190  0.0013  1.0000  -10.6849   0.0000   0.2108
  16.300   1.1410   0.07797   0.07511   0.0176  0.0013  1.0000  -10.6073   0.0000   0.2117
  16.400   1.1321   0.08060   0.07777   0.0163  0.0013  1.0000  -10.5470   0.0000   0.2125
  16.500   1.1233   0.08328   0.08049   0.0150  0.0013  1.0000  -10.4843   0.0000   0.2134
  16.600   1.1146   0.08598   0.08323   0.0137  0.0013  1.0000  -10.4210   0.0000   0.2143
  16.700   1.1076   0.08843   0.08571   0.0125  0.0013  1.0000  -10.3799   0.0000   0.2151
  16.800   1.0996   0.09108   0.08839   0.0112  0.0013  1.0000  -10.3229   0.0000   0.2160
  16.900   1.0933   0.09342   0.09076   0.0101  0.0013  1.0000  -10.2904   0.0000   0.2168
  17.000   1.0866   0.09588   0.09325   0.0088  0.0013  1.0000  -10.2478   0.0000   0.2177
  17.100   1.0807   0.09822   0.09562   0.0077  0.0013  1.0000  -10.2158   0.0000   0.2186
  17.200   1.0762   0.10033   0.09776   0.0067  0.0013  1.0000  -10.2038   0.0000   0.2193
  17.300   1.0698   0.10280   0.10025   0.0054  0.0013  1.0000  -10.1616   0.0000   0.2203
  17.400   1.0656   0.10488   0.10236   0.0044  0.0013  1.0000  -10.1510   0.0000   0.2211
  17.500   1.0620   0.10686   0.10436   0.0034  0.0013  1.0000  -10.1481   0.0000   0.2218
  17.600   1.0566   0.10919   0.10671   0.0022  0.0013  1.0000  -10.1150   0.0000   0.2228
  17.700   1.0533   0.11114   0.10869   0.0012  0.0013  1.0000  -10.1138   0.0000   0.2235
  17.800   1.0506   0.11299   0.11056   0.0003  0.0013  1.0000  -10.1210   0.0000   0.2242
  17.900   1.0468   0.11506   0.11265  -0.0008  0.0013  1.0000  -10.1097   0.0000   0.2251
  18.000   1.0434   0.11707   0.11468  -0.0019  0.0013  1.0000  -10.1021   0.0000   0.2260
  18.100   1.0412   0.11885   0.11648  -0.0028  0.0013  1.0000  -10.1130   0.0000   0.2267
  18.200   1.0393   0.12056   0.11820  -0.0037  0.0013  1.0000  -10.1300   0.0000   0.2273
  18.300   1.0366   0.12246   0.12012  -0.0047  0.0013  1.0000  -10.1297   0.0000   0.2282
  18.400   1.0337   0.12439   0.12207  -0.0057  0.0013  1.0000  -10.1254   0.0000   0.2290
  18.500   1.0321   0.12608   0.12378  -0.0067  0.0013  1.0000  -10.1424   0.0000   0.2297
  18.600   1.0308   0.12770   0.12542  -0.0075  0.0013  1.0000  -10.1644   0.0000   0.2304
  18.700   1.0296   0.12931   0.12704  -0.0084  0.0013  1.0000  -10.1871   0.0000   0.2311
  18.800   1.0274   0.13114   0.12889  -0.0094  0.0013  1.0000  -10.1892   0.0000   0.2319
  18.900   1.0254   0.13291   0.13067  -0.0104  0.0013  1.0000  -10.1954   0.0000   0.2327
  19.000   1.0243   0.13450   0.13229  -0.0113  0.0013  1.0000  -10.2162   0.0000   0.2334
  19.100   1.0236   0.13603   0.13383  -0.0122  0.0012  1.0000  -10.2426   0.0000   0.2341
  19.200   1.0230   0.13753   0.13534  -0.0130  0.0012  1.0000  -10.2709   0.0000   0.2348
  19.300   1.0222   0.13908   0.13690  -0.0139  0.0012  1.0000  -10.2942   0.0000   0.2354
  19.400   1.0202   0.14089   0.13873  -0.0150  0.0012  1.0000  -10.2922   0.0000   0.2364
  19.500   1.0192   0.14249   0.14035  -0.0159  0.0012  1.0000  -10.3083   0.0000   0.2371
  19.600   1.0187   0.14397   0.14185  -0.0168  0.0012  1.0000  -10.3349   0.0000   0.2378
  19.700   1.0185   0.14542   0.14331  -0.0177  0.0012  1.0000  -10.3634   0.0000   0.2384
  19.800   1.0182   0.14686   0.14476  -0.0185  0.0012  1.0000  -10.3915   0.0000   0.2391
  19.900   1.0179   0.14830   0.14622  -0.0194  0.0012  1.0000  -10.4177   0.0000   0.2398
  20.000   1.0166   0.14996   0.14790  -0.0204  0.0012  1.0000  -10.4228   0.0000   0.2406
  20.100   1.0156   0.15157   0.14952  -0.0214  0.0012  1.0000  -10.4316   0.0000   0.2414
  20.200   1.0152   0.15304   0.15101  -0.0223  0.0012  1.0000  -10.4525   0.0000   0.2421
  20.300   1.0151   0.15446   0.15244  -0.0232  0.0012  1.0000  -10.4771   0.0000   0.2428
  20.400   1.0151   0.15586   0.15385  -0.0240  0.0012  1.0000  -10.5025   0.0000   0.2435
  20.500   1.0151   0.15725   0.15526  -0.0249  0.0011  1.0000  -10.5270   0.0000   0.2441
  20.600   1.0151   0.15865   0.15667  -0.0258  0.0011  1.0000  -10.5497   0.0000   0.2448
  20.700   1.0147   0.16013   0.15817  -0.0267  0.0011  1.0000  -10.5633   0.0000   0.2456
  20.800   1.0136   0.16175   0.15981  -0.0278  0.0011  1.0000  -10.5628   0.0000   0.2464
  20.900   1.0132   0.16323   0.16130  -0.0287  0.0011  1.0000  -10.5750   0.0000   0.2472
  21.000   1.0132   0.16463   0.16272  -0.0296  0.0011  1.0000  -10.5925   0.0000   0.2479
  21.100   1.0133   0.16601   0.16411  -0.0305  0.0011  1.0000  -10.6115   0.0000   0.2486
  21.200   1.0134   0.16737   0.16549  -0.0314  0.0011  1.0000  -10.6303   0.0000   0.2493
  21.300   1.0135   0.16873   0.16687  -0.0323  0.0011  1.0000  -10.6482   0.0000   0.2500
  21.400   1.0136   0.17010   0.16825  -0.0332  0.0011  1.0000  -10.6654   0.0000   0.2507
  21.500   1.0133   0.17157   0.16974  -0.0342  0.0011  1.0000  -10.6718   0.0000   0.2515
  21.600   1.0124   0.17317   0.17136  -0.0353  0.0011  1.0000  -10.6647   0.0000   0.2524
  21.700   1.0122   0.17464   0.17284  -0.0363  0.0011  1.0000  -10.6696   0.0000   0.2532
  21.800   1.0122   0.17604   0.17426  -0.0372  0.0011  1.0000  -10.6795   0.0000   0.2540
  21.900   1.0123   0.17742   0.17566  -0.0382  0.0011  1.0000  -10.6906   0.0000   0.2547
  22.000   1.0124   0.17880   0.17705  -0.0391  0.0011  1.0000  -10.7012   0.0000   0.2554
  22.100   1.0125   0.18017   0.17844  -0.0401  0.0011  1.0000  -10.7113   0.0000   0.2562
  22.200   1.0125   0.18156   0.17985  -0.0410  0.0011  1.0000  -10.7187   0.0000   0.2569
  22.300   1.0117   0.18316   0.18147  -0.0421  0.0011  1.0000  -10.7059   0.0000   0.2579
  22.400   1.0109   0.18476   0.18308  -0.0432  0.0011  1.0000  -10.6925   0.0000   0.2588
  22.500   1.0107   0.18623   0.18457  -0.0443  0.0011  1.0000  -10.6901   0.0000   0.2597
  22.600   1.0106   0.18766   0.18602  -0.0453  0.0011  1.0000  -10.6905   0.0000   0.2605
  22.700   1.0106   0.18908   0.18746  -0.0463  0.0011  1.0000  -10.6911   0.0000   0.2613
  22.800   1.0105   0.19051   0.18891  -0.0473  0.0011  1.0000  -10.6903   0.0000   0.2622
  22.900   1.0103   0.19199   0.19040  -0.0483  0.0011  1.0000  -10.6838   0.0000   0.2630
  23.000   1.0090   0.19374   0.19217  -0.0496  0.0011  1.0000  -10.6493   0.0000   0.2642
  23.100   1.0084   0.19533   0.19378  -0.0507  0.0011  1.0000  -10.6293   0.0000   0.2652
  23.200   1.0081   0.19684   0.19531  -0.0518  0.0011  1.0000  -10.6159   0.0000   0.2661
  23.300   1.0079   0.19833   0.19683  -0.0529  0.0011  1.0000  -10.6030   0.0000   0.2670
  23.400   1.0076   0.19984   0.19835  -0.0539  0.0011  1.0000  -10.5875   0.0000   0.2679
  23.500   1.0066   0.20155   0.20008  -0.0551  0.0011  1.0000  -10.5506   0.0000   0.2690
  23.600   1.0053   0.20332   0.20188  -0.0564  0.0011  1.0000  -10.5030   0.0000   0.2702
  23.700   1.0046   0.20495   0.20353  -0.0576  0.0011  1.0000  -10.4707   0.0000   0.2713
  23.800   1.0041   0.20655   0.20514  -0.0587  0.0011  1.0000  -10.4394   0.0000   0.2723
  23.900   1.0035   0.20817   0.20679  -0.0599  0.0011  1.0000  -10.4032   0.0000   0.2734
  24.000   1.0016   0.21016   0.20880  -0.0613  0.0011  1.0000  -10.3238   0.0000   0.2748
  24.100   1.0004   0.21197   0.21063  -0.0625  0.0011  1.0000  -10.2621   0.0000   0.2760
  24.200   0.9995   0.21373   0.21241  -0.0638  0.0011  1.0000  -10.2028   0.0000   0.2772
  24.300   0.9980   0.21564   0.21435  -0.0651  0.0011  1.0000  -10.1220   0.0000   0.2785
  24.400   0.9955   0.21787   0.21661  -0.0666  0.0011  1.0000  -9.9948   0.0000   0.2802
  24.500   0.9936   0.21995   0.21872  -0.0680  0.0011  1.0000  -9.8826   0.0000   0.2817
  24.600   0.9895   0.22273   0.22153  -0.0698  0.0011  1.0000  -9.6674   0.0000   0.2839


