xflr5 v6.47

 Calculated polar for: Wing2

 1 1 Reynolds number fixed          Mach number fixed         

 xtrf =   1.000 (top)        1.000 (bottom)
 Mach =   0.000     Re =     2.000 e 6     Ncrit =   9.000

  alpha     CL        CD       CDp       Cm    Top Xtr Bot Xtr   Cpmin    Chinge    XCp    
 ------- -------- --------- --------- -------- ------- ------- -------- --------- ---------
 -19.300  -0.8009   0.17027   0.16895   0.0382  1.0000  0.0038  -8.6655   0.0000   0.2767
 -19.200  -0.8179   0.16441   0.16305   0.0349  1.0000  0.0038  -9.3151   0.0000   0.2713
 -19.100  -0.8280   0.16043   0.15903   0.0326  1.0000  0.0038  -9.6804   0.0000   0.2678
 -19.000  -0.8343   0.15741   0.15599   0.0308  1.0000  0.0038  -9.9014   0.0000   0.2654
 -18.900  -0.8419   0.15411   0.15266   0.0288  1.0000  0.0038  -10.1551   0.0000   0.2627
 -18.800  -0.8478   0.15124   0.14977   0.0271  1.0000  0.0038  -10.3432   0.0000   0.2604
 -18.700  -0.8555   0.14798   0.14648   0.0251  1.0000  0.0039  -10.5796   0.0000   0.2578
 -18.600  -0.8615   0.14513   0.14361   0.0234  1.0000  0.0039  -10.7541   0.0000   0.2557
 -18.500  -0.8702   0.14173   0.14018   0.0214  1.0000  0.0039  -10.9965   0.0000   0.2530
 -18.400  -0.8770   0.13874   0.13716   0.0195  1.0000  0.0039  -11.1801   0.0000   0.2508
 -18.300  -0.8870   0.13513   0.13352   0.0173  1.0000  0.0039  -11.4384   0.0000   0.2481
 -18.200  -0.8958   0.13178   0.13015   0.0153  1.0000  0.0039  -11.6562   0.0000   0.2457
 -18.100  -0.9077   0.12784   0.12617   0.0128  1.0000  0.0038  -11.9431   0.0000   0.2428
 -18.000  -0.9215   0.12354   0.12183   0.0102  1.0000  0.0038  -12.2672   0.0000   0.2397
 -17.900  -0.9359   0.11922   0.11747   0.0075  1.0000  0.0038  -12.5883   0.0000   0.2367
 -17.800  -0.9534   0.11432   0.11253   0.0044  1.0000  0.0037  -12.9711   0.0000   0.2334
 -17.700  -0.9727   0.10917   0.10732   0.0012  1.0000  0.0037  -13.3758   0.0000   0.2300
 -17.600  -0.9920   0.10407   0.10217  -0.0020  1.0000  0.0036  -13.7633   0.0000   0.2269
 -17.500  -1.0094   0.09935   0.09740  -0.0048  1.0000  0.0036  -14.0967   0.0000   0.2242
 -17.400  -1.0247   0.09507   0.09307  -0.0074  1.0000  0.0035  -14.3702   0.0000   0.2219
 -17.300  -1.0381   0.09112   0.08908  -0.0097  1.0000  0.0035  -14.5985   0.0000   0.2199
 -17.200  -1.0500   0.08747   0.08539  -0.0118  1.0000  0.0034  -14.7864   0.0000   0.2181
 -17.100  -1.0606   0.08403   0.08192  -0.0137  1.0000  0.0034  -14.9440   0.0000   0.2165
 -17.000  -1.0757   0.07979   0.07763  -0.0162  1.0000  0.0034  -15.1888   0.0000   0.2145
 -16.900  -1.1290   0.06884   0.06651  -0.0232  1.0000  0.0033  -16.1838   0.0000   0.2092
 -16.800  -1.1589   0.06236   0.05992  -0.0274  1.0000  0.0033  -16.6868   0.0000   0.2063
 -16.700  -1.1799   0.05764   0.05512  -0.0303  1.0000  0.0033  -17.0022   0.0000   0.2044
 -16.600  -1.1964   0.05387   0.05127  -0.0326  1.0000  0.0033  -17.2205   0.0000   0.2030
 -16.500  -1.2097   0.05072   0.04805  -0.0344  1.0000  0.0033  -17.3745   0.0000   0.2021
 -16.400  -1.2212   0.04798   0.04525  -0.0359  1.0000  0.0033  -17.4876   0.0000   0.2014
 -16.300  -1.2312   0.04558   0.04279  -0.0371  1.0000  0.0033  -17.5689   0.0000   0.2009
 -16.200  -1.2401   0.04345   0.04061  -0.0379  1.0000  0.0033  -17.6263   0.0000   0.2006
 -16.100  -1.2483   0.04156   0.03866  -0.0386  1.0000  0.0033  -17.6651   0.0000   0.2005
 -16.000  -1.2557   0.03987   0.03693  -0.0389  1.0000  0.0033  -17.6866   0.0000   0.2006
 -15.900  -1.2624   0.03838   0.03538  -0.0391  1.0000  0.0033  -17.6933   0.0000   0.2009
 -15.800  -1.2685   0.03703   0.03399  -0.0390  1.0000  0.0033  -17.6862   0.0000   0.2013
 -15.700  -1.2741   0.03582   0.03273  -0.0388  1.0000  0.0033  -17.6685   0.0000   0.2018
 -15.600  -1.2792   0.03471   0.03158  -0.0384  1.0000  0.0033  -17.6398   0.0000   0.2024
 -15.500  -1.2838   0.03371   0.03054  -0.0378  1.0000  0.0033  -17.6022   0.0000   0.2032
 -15.400  -1.2880   0.03279   0.02958  -0.0372  1.0000  0.0033  -17.5567   0.0000   0.2039
 -15.300  -1.2918   0.03195   0.02871  -0.0365  1.0000  0.0033  -17.5030   0.0000   0.2048
 -15.200  -1.2951   0.03119   0.02790  -0.0356  1.0000  0.0033  -17.4413   0.0000   0.2057
 -15.100  -1.2982   0.03047   0.02715  -0.0347  1.0000  0.0033  -17.3757   0.0000   0.2066
 -15.000  -1.3009   0.02981   0.02645  -0.0337  1.0000  0.0033  -17.3029   0.0000   0.2076
 -14.900  -1.3031   0.02920   0.02580  -0.0327  1.0000  0.0033  -17.2227   0.0000   0.2086
 -14.800  -1.3052   0.02862   0.02519  -0.0316  1.0000  0.0033  -17.1408   0.0000   0.2097
 -14.700  -1.3068   0.02810   0.02463  -0.0304  1.0000  0.0033  -17.0502   0.0000   0.2107
 -14.600  -1.3082   0.02760   0.02411  -0.0292  1.0000  0.0033  -16.9575   0.0000   0.2118
 -14.500  -1.3095   0.02714   0.02361  -0.0279  1.0000  0.0033  -16.8622   0.0000   0.2130
 -14.400  -1.3100   0.02672   0.02316  -0.0267  1.0000  0.0034  -16.7563   0.0000   0.2141
 -14.300  -1.3127   0.02623   0.02264  -0.0251  1.0000  0.0034  -16.6809   0.0000   0.2155
 -14.200  -1.3200   0.02554   0.02188  -0.0230  1.0000  0.0034  -16.6718   0.0000   0.2173
 -14.100  -1.3265   0.02494   0.02122  -0.0208  1.0000  0.0034  -16.6505   0.0000   0.2192
 -14.000  -1.3317   0.02440   0.02062  -0.0186  1.0000  0.0035  -16.6101   0.0000   0.2211
 -13.900  -1.3355   0.02391   0.02008  -0.0165  1.0000  0.0035  -16.5516   0.0000   0.2228
 -13.800  -1.3392   0.02349   0.01962  -0.0143  1.0000  0.0035  -16.4883   0.0000   0.2246
 -13.700  -1.3434   0.02315   0.01923  -0.0119  1.0000  0.0036  -16.4268   0.0000   0.2266
 -13.600  -1.3456   0.02279   0.01884  -0.0098  1.0000  0.0036  -16.3431   0.0000   0.2283
 -13.500  -1.3438   0.02240   0.01841  -0.0085  1.0000  0.0037  -16.2142   0.0000   0.2294
 -13.400  -1.3408   0.02202   0.01800  -0.0073  1.0000  0.0037  -16.0704   0.0000   0.2304
 -13.300  -1.3370   0.02168   0.01762  -0.0063  1.0000  0.0038  -15.9156   0.0000   0.2313
 -13.200  -1.3325   0.02136   0.01727  -0.0053  1.0000  0.0038  -15.7522   0.0000   0.2321
 -13.100  -1.3274   0.02105   0.01694  -0.0045  1.0000  0.0039  -15.5823   0.0000   0.2329
 -13.000  -1.3219   0.02076   0.01663  -0.0036  1.0000  0.0039  -15.4073   0.0000   0.2337
 -12.900  -1.3160   0.02048   0.01632  -0.0029  1.0000  0.0040  -15.2285   0.0000   0.2344
 -12.800  -1.3098   0.02021   0.01603  -0.0021  1.0000  0.0040  -15.0467   0.0000   0.2351
 -12.700  -1.3034   0.01995   0.01575  -0.0014  1.0000  0.0040  -14.8626   0.0000   0.2357
 -12.600  -1.2967   0.01969   0.01547  -0.0008  1.0000  0.0041  -14.6766   0.0000   0.2364
 -12.500  -1.2897   0.01945   0.01520  -0.0001  1.0000  0.0041  -14.4888   0.0000   0.2370
 -12.400  -1.2826   0.01921   0.01494   0.0005  1.0000  0.0042  -14.3002   0.0000   0.2376
 -12.300  -1.2754   0.01897   0.01468   0.0011  1.0000  0.0042  -14.1112   0.0000   0.2382
 -12.200  -1.2680   0.01873   0.01443   0.0016  1.0000  0.0043  -13.9219   0.0000   0.2388
 -12.100  -1.2604   0.01850   0.01417   0.0022  1.0000  0.0043  -13.7326   0.0000   0.2394
 -12.000  -1.2528   0.01827   0.01392   0.0027  1.0000  0.0044  -13.5432   0.0000   0.2400
 -11.900  -1.2450   0.01804   0.01367   0.0032  1.0000  0.0044  -13.3538   0.0000   0.2406
 -11.800  -1.2371   0.01781   0.01343   0.0038  1.0000  0.0045  -13.1644   0.0000   0.2411
 -11.700  -1.2291   0.01759   0.01318   0.0043  1.0000  0.0045  -12.9751   0.0000   0.2417
 -11.600  -1.2210   0.01738   0.01294   0.0047  1.0000  0.0046  -12.7858   0.0000   0.2423
 -11.500  -1.2127   0.01716   0.01271   0.0052  1.0000  0.0046  -12.5965   0.0000   0.2428
 -11.400  -1.2044   0.01695   0.01248   0.0057  1.0000  0.0047  -12.4071   0.0000   0.2433
 -11.300  -1.1959   0.01675   0.01226   0.0061  1.0000  0.0047  -12.2174   0.0000   0.2439
 -11.200  -1.1873   0.01656   0.01205   0.0065  1.0000  0.0048  -12.0271   0.0000   0.2444
 -11.100  -1.1785   0.01638   0.01185   0.0069  1.0000  0.0048  -11.8364   0.0000   0.2449
 -11.000  -1.1696   0.01620   0.01165   0.0073  1.0000  0.0048  -11.6453   0.0000   0.2454
 -10.900  -1.1606   0.01603   0.01147   0.0077  1.0000  0.0049  -11.4534   0.0000   0.2459
 -10.800  -1.1514   0.01588   0.01131   0.0080  1.0000  0.0049  -11.2607   0.0000   0.2464
 -10.700  -1.1421   0.01574   0.01115   0.0083  1.0000  0.0049  -11.0675   0.0000   0.2468
 -10.600  -1.1351   0.01532   0.01069   0.0090  1.0000  0.0051  -10.9181   0.0000   0.2476
 -10.500  -1.1274   0.01498   0.01031   0.0095  1.0000  0.0053  -10.7574   0.0000   0.2483
 -10.400  -1.1189   0.01472   0.01003   0.0100  1.0000  0.0054  -10.5833   0.0000   0.2488
 -10.300  -1.1099   0.01451   0.00980   0.0104  1.0000  0.0055  -10.4030   0.0000   0.2494
 -10.200  -1.1007   0.01432   0.00961   0.0107  1.0000  0.0057  -10.2207   0.0000   0.2499
 -10.100  -1.0914   0.01415   0.00943   0.0110  1.0000  0.0058  -10.0474   0.0000   0.2504
 -10.000  -1.0819   0.01399   0.00926   0.0113  1.0000  0.0059  -9.8743   0.0000   0.2509
  -9.900  -1.0724   0.01384   0.00910   0.0116  1.0000  0.0060  -9.7015   0.0000   0.2514
  -9.800  -1.0628   0.01368   0.00893   0.0119  1.0000  0.0061  -9.5300   0.0000   0.2519
  -9.700  -1.0531   0.01353   0.00877   0.0122  1.0000  0.0062  -9.3599   0.0000   0.2524
  -9.600  -1.0434   0.01338   0.00861   0.0125  1.0000  0.0063  -9.1910   0.0000   0.2528
  -9.500  -1.0337   0.01324   0.00846   0.0128  1.0000  0.0064  -9.0231   0.0000   0.2533
  -9.400  -1.0239   0.01310   0.00830   0.0130  1.0000  0.0065  -8.8560   0.0000   0.2538
  -9.300  -1.0140   0.01296   0.00816   0.0133  1.0000  0.0066  -8.6897   0.0000   0.2543
  -9.200  -1.0040   0.01283   0.00802   0.0135  1.0000  0.0067  -8.5239   0.0000   0.2548
  -9.100  -0.9940   0.01271   0.00788   0.0138  1.0000  0.0068  -8.3588   0.0000   0.2553
  -9.000  -0.9840   0.01259   0.00775   0.0140  1.0000  0.0068  -8.1945   0.0000   0.2558
  -8.900  -0.9750   0.01231   0.00744   0.0144  1.0000  0.0070  -8.0530   0.0000   0.2565
  -8.800  -0.9658   0.01206   0.00717   0.0148  1.0000  0.0073  -7.9085   0.0000   0.2571
  -8.700  -0.9562   0.01187   0.00698   0.0151  1.0000  0.0076  -7.7558   0.0000   0.2577
  -8.600  -0.9463   0.01172   0.00681   0.0154  1.0000  0.0077  -7.6001   0.0000   0.2582
  -8.500  -0.9363   0.01157   0.00667   0.0156  1.0000  0.0079  -7.4438   0.0000   0.2588
  -8.400  -0.9262   0.01144   0.00653   0.0159  1.0000  0.0081  -7.2882   0.0000   0.2593
  -8.300  -0.9161   0.01131   0.00639   0.0161  1.0000  0.0083  -7.1334   0.0000   0.2598
  -8.200  -0.9058   0.01119   0.00626   0.0163  1.0000  0.0085  -6.9797   0.0000   0.2604
  -8.100  -0.8956   0.01107   0.00614   0.0165  1.0000  0.0087  -6.8273   0.0000   0.2609
  -8.000  -0.8849   0.01095   0.00601   0.0166  0.9959  0.0088  -6.6730   0.0000   0.2614
  -7.900  -0.8731   0.01127   0.00587   0.0166  0.7878  0.0090  -6.5109   0.0000   0.2617
  -7.800  -0.8633   0.01127   0.00576   0.0169  0.7514  0.0091  -6.3655   0.0000   0.2624
  -7.700  -0.8538   0.01113   0.00554   0.0173  0.7315  0.0095  -6.2305   0.0000   0.2631
  -7.500  -0.8337   0.01090   0.00523   0.0178  0.7069  0.0103  -5.9474   0.0000   0.2644
  -7.300  -0.8130   0.01073   0.00501   0.0182  0.6906  0.0110  -5.6616   0.0000   0.2656
  -7.200  -0.8025   0.01065   0.00490   0.0183  0.6836  0.0113  -5.5294   0.0000   0.2662
  -7.100  -0.7919   0.01058   0.00481   0.0185  0.6777  0.0116  -5.3979   0.0000   0.2668
  -7.000  -0.7812   0.01051   0.00471   0.0186  0.6723  0.0118  -5.2667   0.0000   0.2673
  -6.900  -0.7711   0.01035   0.00453   0.0189  0.6669  0.0125  -5.1475   0.0000   0.2681
  -6.800  -0.7607   0.01024   0.00440   0.0191  0.6621  0.0131  -5.0224   0.0000   0.2687
  -6.700  -0.7502   0.01014   0.00430   0.0192  0.6577  0.0136  -4.8965   0.0000   0.2694
  -6.600  -0.7395   0.01006   0.00420   0.0194  0.6531  0.0141  -4.7714   0.0000   0.2701
  -6.500  -0.7288   0.00999   0.00411   0.0195  0.6486  0.0146  -4.6470   0.0000   0.2707
  -6.400  -0.7181   0.00991   0.00401   0.0197  0.6448  0.0150  -4.5249   0.0000   0.2714
  -6.300  -0.7077   0.00978   0.00388   0.0199  0.6407  0.0161  -4.4067   0.0000   0.2722
  -6.200  -0.6971   0.00969   0.00377   0.0200  0.6364  0.0169  -4.2869   0.0000   0.2729
  -6.100  -0.6863   0.00962   0.00368   0.0202  0.6323  0.0176  -4.1675   0.0000   0.2736
  -6.000  -0.6754   0.00955   0.00360   0.0203  0.6288  0.0182  -4.0481   0.0000   0.2744
  -5.900  -0.6649   0.00944   0.00349   0.0205  0.6247  0.0196  -3.9336   0.0000   0.2752
  -5.800  -0.6542   0.00935   0.00339   0.0206  0.6205  0.0208  -3.8214   0.0000   0.2760
  -5.700  -0.6433   0.00928   0.00331   0.0207  0.6168  0.0218  -3.7156   0.0000   0.2767
  -5.600  -0.6326   0.00919   0.00322   0.0209  0.6130  0.0232  -3.6122   0.0000   0.2776
  -5.500  -0.6219   0.00910   0.00313   0.0210  0.6087  0.0248  -3.5095   0.0000   0.2785
  -5.300  -0.6002   0.00894   0.00296   0.0213  0.6006  0.0281  -3.3064   0.0000   0.2802
  -5.200  -0.5894   0.00886   0.00288   0.0214  0.5963  0.0300  -3.2063   0.0000   0.2812
  -5.100  -0.5785   0.00880   0.00280   0.0215  0.5918  0.0319  -3.1070   0.0000   0.2821
  -5.000  -0.5677   0.00870   0.00272   0.0216  0.5876  0.0345  -3.0094   0.0000   0.2831
  -4.900  -0.5568   0.00864   0.00264   0.0217  0.5828  0.0368  -2.9119   0.0000   0.2841
  -4.800  -0.5460   0.00855   0.00256   0.0218  0.5781  0.0401  -2.8166   0.0000   0.2852
  -4.700  -0.5350   0.00848   0.00249   0.0220  0.5736  0.0429  -2.7213   0.0000   0.2862
  -4.600  -0.5242   0.00840   0.00242   0.0221  0.5685  0.0464  -2.6279   0.0000   0.2874
  -4.500  -0.5133   0.00834   0.00235   0.0222  0.5634  0.0496  -2.5350   0.0000   0.2885
  -4.400  -0.5024   0.00826   0.00228   0.0223  0.5584  0.0534  -2.4434   0.0000   0.2897
  -4.300  -0.4915   0.00819   0.00221   0.0224  0.5530  0.0574  -2.3563   0.0000   0.2910
  -4.200  -0.4805   0.00813   0.00215   0.0225  0.5480  0.0617  -2.2743   0.0000   0.2923
  -4.100  -0.4696   0.00805   0.00209   0.0226  0.5424  0.0665  -2.1935   0.0000   0.2937
  -4.000  -0.4586   0.00801   0.00203   0.0227  0.5368  0.0705  -2.1130   0.0000   0.2951
  -3.900  -0.4476   0.00793   0.00197   0.0228  0.5315  0.0755  -2.0339   0.0000   0.2965
  -3.800  -0.4366   0.00788   0.00191   0.0228  0.5257  0.0800  -1.9555   0.0000   0.2981
  -3.700  -0.4256   0.00782   0.00186   0.0229  0.5204  0.0853  -1.8782   0.0000   0.2997
  -3.600  -0.4146   0.00776   0.00181   0.0230  0.5144  0.0903  -1.8051   0.0000   0.3014
  -3.500  -0.4036   0.00772   0.00176   0.0231  0.5087  0.0953  -1.7363   0.0000   0.3031
  -3.400  -0.3926   0.00765   0.00171   0.0232  0.5030  0.1010  -1.6683   0.0000   0.3050
  -3.300  -0.3815   0.00762   0.00166   0.0232  0.4970  0.1064  -1.6010   0.0000   0.3070
  -3.200  -0.3705   0.00755   0.00161   0.0233  0.4915  0.1133  -1.5349   0.0000   0.3090
  -3.100  -0.3595   0.00750   0.00156   0.0234  0.4852  0.1199  -1.4711   0.0000   0.3112
  -3.000  -0.3484   0.00745   0.00152   0.0235  0.4796  0.1272  -1.4121   0.0000   0.3136
  -2.900  -0.3374   0.00738   0.00147   0.0236  0.4735  0.1359  -1.3540   0.0000   0.3161
  -2.800  -0.3265   0.00732   0.00142   0.0236  0.4678  0.1453  -1.2967   0.0000   0.3187
  -2.700  -0.3155   0.00725   0.00138   0.0237  0.4620  0.1555  -1.2422   0.0000   0.3215
  -2.600  -0.3046   0.00719   0.00134   0.0238  0.4557  0.1670  -1.1912   0.0000   0.3245
  -2.500  -0.2936   0.00711   0.00129   0.0239  0.4501  0.1799  -1.1408   0.0000   0.3278
  -2.400  -0.2828   0.00704   0.00125   0.0240  0.4438  0.1941  -1.0926   0.0000   0.3313
  -2.300  -0.2719   0.00696   0.00121   0.0240  0.4384  0.2100  -1.0477   0.0000   0.3350
  -2.200  -0.2610   0.00688   0.00117   0.0241  0.4326  0.2267  -1.0032   0.0000   0.3391
  -2.100  -0.2503   0.00679   0.00112   0.0242  0.4268  0.2459  -0.9622   0.0000   0.3435
  -2.000  -0.2394   0.00670   0.00109   0.0243  0.4212  0.2654  -0.9223   0.0000   0.3483
  -1.900  -0.2287   0.00662   0.00105   0.0244  0.4149  0.2858  -0.8843   0.0000   0.3535
  -1.800  -0.2178   0.00653   0.00102   0.0245  0.4096  0.3063  -0.8483   0.0000   0.3593
  -1.700  -0.2069   0.00646   0.00099   0.0246  0.4037  0.3251  -0.8133   0.0000   0.3657
  -1.600  -0.1960   0.00639   0.00096   0.0246  0.3985  0.3437  -0.7806   0.0000   0.3727
  -1.500  -0.1850   0.00633   0.00094   0.0247  0.3932  0.3603  -0.7485   0.0000   0.3807
  -1.400  -0.1740   0.00629   0.00092   0.0248  0.3873  0.3760  -0.7186   0.0000   0.3896
  -1.300  -0.1629   0.00624   0.00090   0.0248  0.3823  0.3908  -0.6893   0.0000   0.3997
  -1.200  -0.1519   0.00620   0.00088   0.0249  0.3766  0.4046  -0.6620   0.0000   0.4113
  -1.100  -0.1408   0.00617   0.00087   0.0249  0.3712  0.4181  -0.6352   0.0000   0.4247
  -1.000  -0.1296   0.00613   0.00086   0.0250  0.3663  0.4309  -0.6100   0.0000   0.4405
  -0.900  -0.1185   0.00610   0.00084   0.0250  0.3611  0.4430  -0.5853   0.0000   0.4592
  -0.800  -0.1073   0.00607   0.00083   0.0251  0.3567  0.4550  -0.5712   0.0000   0.4818
  -0.700  -0.0961   0.00605   0.00083   0.0251  0.3519  0.4665  -0.5856   0.0000   0.5098
  -0.600  -0.0849   0.00604   0.00082   0.0252  0.3465  0.4780  -0.5999   0.0000   0.5451
  -0.500  -0.0737   0.00601   0.00081   0.0252  0.3422  0.4896  -0.6143   0.0000   0.5911
  -0.400  -0.0625   0.00598   0.00081   0.0252  0.3373  0.5009  -0.6288   0.0000   0.6536
  -0.200  -0.0400   0.00595   0.00079   0.0253  0.3286  0.5220  -0.6584   0.0000   0.8843
  -0.100  -0.0288   0.00593   0.00079   0.0253  0.3245  0.5336  -0.6739   0.0000   1.1349
   0.000  -0.0176   0.00591   0.00079   0.0254  0.3200  0.5455  -0.6894   0.0000   1.7005
   0.100  -0.0064   0.00588   0.00078   0.0254  0.3164  0.5574  -0.7049   0.0000   4.2459
   0.200   0.0048   0.00585   0.00078   0.0255  0.3124  0.5700  -0.7206   0.0000  -5.1544
   0.300   0.0158   0.00583   0.00078   0.0255  0.3080  0.5845  -0.7362   0.0000  -1.3798
   0.400   0.0269   0.00579   0.00077   0.0256  0.3040  0.6019  -0.7518   0.0000  -0.7153
   0.500   0.0377   0.00572   0.00077   0.0257  0.3005  0.6246  -0.7674   0.0000  -0.4414
   0.600   0.0484   0.00564   0.00077   0.0258  0.2965  0.6522  -0.7829   0.0000  -0.2922
   0.700   0.0590   0.00557   0.00077   0.0260  0.2926  0.6820  -0.7984   0.0000  -0.1982
   0.800   0.0697   0.00550   0.00078   0.0261  0.2898  0.7108  -0.8145   0.0000  -0.1325
   0.900   0.0804   0.00544   0.00079   0.0263  0.2867  0.7350  -0.8311   0.0000  -0.0840
   1.000   0.0911   0.00539   0.00080   0.0264  0.2832  0.7565  -0.8478   0.0000  -0.0469
   1.100   0.1018   0.00537   0.00081   0.0266  0.2794  0.7759  -0.8645   0.0000  -0.0176
   1.200   0.1126   0.00532   0.00083   0.0267  0.2766  0.7934  -0.8813   0.0000   0.0059
   1.300   0.1235   0.00531   0.00084   0.0269  0.2734  0.8076  -0.8984   0.0000   0.0261
   1.400   0.1342   0.00529   0.00086   0.0270  0.2698  0.8222  -0.9154   0.0000   0.0424
   1.500   0.1453   0.00530   0.00088   0.0271  0.2658  0.8329  -0.9326   0.0000   0.0571
   1.600   0.1560   0.00528   0.00090   0.0273  0.2634  0.8455  -0.9496   0.0000   0.0687
   1.700   0.1671   0.00528   0.00091   0.0274  0.2604  0.8549  -0.9671   0.0000   0.0798
   1.800   0.1782   0.00530   0.00093   0.0275  0.2573  0.8628  -0.9846   0.0000   0.0896
   1.900   0.1888   0.00530   0.00096   0.0277  0.2539  0.8728  -1.0017   0.0000   0.0972
   2.000   0.1998   0.00530   0.00098   0.0279  0.2516  0.8809  -1.0193   0.0000   0.1047
   2.100   0.2110   0.00532   0.00100   0.0279  0.2491  0.8871  -1.0377   0.0000   0.1118
   2.200   0.2223   0.00534   0.00102   0.0280  0.2463  0.8920  -1.0566   0.0000   0.1183
   2.300   0.2329   0.00536   0.00104   0.0282  0.2434  0.9003  -1.0750   0.0000   0.1232
   2.400   0.2437   0.00538   0.00107   0.0283  0.2402  0.9073  -1.0936   0.0000   0.1279
   2.500   0.2548   0.00539   0.00110   0.0285  0.2383  0.9133  -1.1126   0.0000   0.1325
   2.600   0.2660   0.00541   0.00112   0.0285  0.2358  0.9182  -1.1318   0.0000   0.1369
   2.700   0.2772   0.00545   0.00114   0.0286  0.2330  0.9219  -1.1510   0.0000   0.1411
   2.800   0.2884   0.00549   0.00116   0.0286  0.2298  0.9249  -1.1703   0.0000   0.1449
   2.900   0.2998   0.00552   0.00119   0.0287  0.2271  0.9313  -1.1898   0.0000   0.1485
   3.000   0.3112   0.00554   0.00122   0.0287  0.2250  0.9370  -1.2094   0.0000   0.1519
   3.100   0.3227   0.00557   0.00126   0.0287  0.2226  0.9419  -1.2292   0.0000   0.1551
   3.200   0.3342   0.00561   0.00129   0.0287  0.2200  0.9462  -1.2491   0.0000   0.1582
   3.300   0.3456   0.00565   0.00132   0.0287  0.2172  0.9501  -1.2690   0.0000   0.1610
   3.400   0.3570   0.00569   0.00136   0.0288  0.2148  0.9535  -1.2888   0.0000   0.1635
   3.500   0.3683   0.00572   0.00138   0.0288  0.2132  0.9564  -1.3087   0.0000   0.1658
   3.600   0.3794   0.00576   0.00141   0.0289  0.2112  0.9587  -1.3285   0.0000   0.1679
   3.700   0.3903   0.00580   0.00144   0.0290  0.2090  0.9604  -1.3481   0.0000   0.1697
   3.800   0.4027   0.00585   0.00148   0.0288  0.2065  0.9631  -1.3693   0.0000   0.1725
   3.900   0.4160   0.00590   0.00151   0.0283  0.2036  0.9660  -1.3913   0.0000   0.1758
   4.000   0.4295   0.00593   0.00154   0.0279  0.2020  0.9684  -1.4137   0.0000   0.1790
   4.100   0.4429   0.00596   0.00157   0.0274  0.2003  0.9705  -1.4364   0.0000   0.1819
   4.200   0.4563   0.00600   0.00160   0.0270  0.1982  0.9724  -1.4601   0.0000   0.1847
   4.300   0.4696   0.00605   0.00164   0.0266  0.1960  0.9742  -1.4839   0.0000   0.1872
   4.400   0.4829   0.00610   0.00168   0.0261  0.1935  0.9759  -1.5076   0.0000   0.1896
   4.500   0.4962   0.00615   0.00172   0.0257  0.1911  0.9776  -1.5315   0.0000   0.1919
   4.600   0.5096   0.00619   0.00175   0.0252  0.1897  0.9791  -1.5556   0.0000   0.1941
   4.700   0.5230   0.00623   0.00178   0.0248  0.1880  0.9805  -1.5799   0.0000   0.1962
   4.800   0.5363   0.00627   0.00182   0.0244  0.1859  0.9818  -1.6041   0.0000   0.1981
   4.900   0.5495   0.00633   0.00186   0.0239  0.1837  0.9832  -1.6284   0.0000   0.1999
   5.000   0.5627   0.00639   0.00191   0.0235  0.1812  0.9845  -1.6526   0.0000   0.2016
   5.100   0.5759   0.00644   0.00195   0.0231  0.1793  0.9858  -1.6768   0.0000   0.2032
   5.200   0.5890   0.00647   0.00199   0.0227  0.1782  0.9870  -1.7013   0.0000   0.2047
   5.300   0.6021   0.00651   0.00203   0.0223  0.1768  0.9881  -1.7256   0.0000   0.2061
   5.400   0.6151   0.00656   0.00207   0.0220  0.1752  0.9891  -1.7501   0.0000   0.2075
   5.500   0.6281   0.00661   0.00211   0.0216  0.1735  0.9901  -1.7746   0.0000   0.2087
   5.600   0.6410   0.00667   0.00216   0.0212  0.1716  0.9911  -1.7991   0.0000   0.2099
   5.700   0.6539   0.00674   0.00222   0.0208  0.1694  0.9919  -1.8236   0.0000   0.2111
   5.800   0.6669   0.00679   0.00227   0.0205  0.1677  0.9927  -1.8482   0.0000   0.2122
   5.900   0.6798   0.00682   0.00231   0.0201  0.1663  0.9934  -1.8732   0.0000   0.2132
   6.000   0.6927   0.00688   0.00235   0.0198  0.1640  0.9941  -1.8983   0.0000   0.2142
   6.100   0.7055   0.00695   0.00240   0.0194  0.1610  0.9947  -1.9233   0.0000   0.2151
   6.200   0.7182   0.00704   0.00247   0.0190  0.1571  0.9953  -1.9494   0.0000   0.2160
   6.300   0.7312   0.00708   0.00251   0.0187  0.1556  0.9958  -1.9762   0.0000   0.2169
   6.400   0.7441   0.00713   0.00256   0.0183  0.1537  0.9963  -2.0299   0.0000   0.2177
   6.500   0.7570   0.00719   0.00261   0.0180  0.1514  0.9967  -2.1338   0.0000   0.2185
   6.600   0.7698   0.00727   0.00268   0.0176  0.1483  0.9972  -2.2389   0.0000   0.2193
   6.700   0.7827   0.00735   0.00274   0.0172  0.1457  0.9975  -2.3461   0.0000   0.2201
   6.800   0.7959   0.00739   0.00279   0.0168  0.1442  0.9979  -2.4558   0.0000   0.2209
   6.900   0.8089   0.00746   0.00285   0.0164  0.1417  0.9982  -2.5666   0.0000   0.2217
   7.000   0.8218   0.00755   0.00292   0.0160  0.1385  0.9985  -2.6778   0.0000   0.2224
   7.100   0.8346   0.00763   0.00299   0.0156  0.1353  0.9988  -2.7897   0.0000   0.2230
   7.200   0.8475   0.00769   0.00305   0.0152  0.1332  0.9990  -2.9031   0.0000   0.2236
   7.300   0.8599   0.00778   0.00312   0.0149  0.1297  0.9992  -3.0157   0.0000   0.2241
   7.400   0.8722   0.00790   0.00321   0.0146  0.1249  0.9994  -3.1272   0.0000   0.2246
   7.500   0.8843   0.00800   0.00329   0.0144  0.1200  0.9996  -3.2387   0.0000   0.2250
   7.600   0.8961   0.00815   0.00340   0.0142  0.1125  0.9998  -3.3467   0.0000   0.2254
   7.700   0.9070   0.00849   0.00362   0.0140  0.0950  0.9999  -3.4528   0.0000   0.2257
   7.800   0.9064   0.01027   0.00493   0.0151  0.0124  1.0000  -3.4885   0.0000   0.2243
   7.900   0.9141   0.01057   0.00520   0.0157  0.0056  1.0000  -3.5802   0.0000   0.2237
   8.000   0.9228   0.01072   0.00535   0.0161  0.0048  1.0000  -3.6849   0.0000   0.2233
   8.100   0.9314   0.01089   0.00553   0.0165  0.0039  1.0000  -3.7819   0.0000   0.2229
   8.200   0.9402   0.01105   0.00570   0.0169  0.0036  1.0000  -3.8824   0.0000   0.2225
   8.300   0.9492   0.01116   0.00583   0.0173  0.0035  1.0000  -3.9965   0.0000   0.2221
   8.400   0.9582   0.01129   0.00597   0.0177  0.0034  1.0000  -4.1108   0.0000   0.2218
   8.500   0.9672   0.01142   0.00611   0.0181  0.0033  1.0000  -4.2263   0.0000   0.2215
   8.600   0.9763   0.01156   0.00625   0.0184  0.0032  1.0000  -4.3431   0.0000   0.2212
   8.700   0.9854   0.01170   0.00641   0.0188  0.0032  1.0000  -4.4614   0.0000   0.2209
   8.800   0.9946   0.01184   0.00656   0.0191  0.0031  1.0000  -4.5811   0.0000   0.2206
   8.900   1.0037   0.01199   0.00673   0.0194  0.0030  1.0000  -4.7024   0.0000   0.2203
   9.000   1.0129   0.01215   0.00689   0.0197  0.0030  1.0000  -4.8250   0.0000   0.2201
   9.100   1.0220   0.01230   0.00706   0.0200  0.0029  1.0000  -4.9489   0.0000   0.2198
   9.200   1.0312   0.01246   0.00724   0.0203  0.0028  1.0000  -5.0740   0.0000   0.2196
   9.300   1.0403   0.01263   0.00742   0.0207  0.0028  1.0000  -5.2002   0.0000   0.2193
   9.400   1.0493   0.01280   0.00760   0.0210  0.0028  1.0000  -5.3275   0.0000   0.2190
   9.500   1.0583   0.01297   0.00779   0.0213  0.0027  1.0000  -5.4556   0.0000   0.2188
   9.600   1.0673   0.01315   0.00798   0.0216  0.0027  1.0000  -5.5842   0.0000   0.2185
   9.700   1.0761   0.01334   0.00819   0.0219  0.0026  1.0000  -5.7134   0.0000   0.2183
   9.800   1.0849   0.01353   0.00840   0.0223  0.0026  1.0000  -5.8430   0.0000   0.2180
   9.900   1.0936   0.01373   0.00862   0.0226  0.0026  1.0000  -5.9728   0.0000   0.2177
  10.000   1.1022   0.01393   0.00884   0.0229  0.0025  1.0000  -6.1027   0.0000   0.2174
  10.100   1.1107   0.01415   0.00908   0.0233  0.0025  1.0000  -6.2324   0.0000   0.2171
  10.200   1.1190   0.01437   0.00932   0.0237  0.0025  1.0000  -6.3617   0.0000   0.2168
  10.300   1.1273   0.01460   0.00958   0.0241  0.0024  1.0000  -6.4903   0.0000   0.2165
  10.400   1.1353   0.01485   0.00985   0.0245  0.0024  1.0000  -6.6180   0.0000   0.2161
  10.500   1.1432   0.01511   0.01013   0.0249  0.0024  1.0000  -6.7444   0.0000   0.2158
  10.600   1.1509   0.01538   0.01043   0.0253  0.0023  1.0000  -6.8693   0.0000   0.2154
  10.700   1.1583   0.01567   0.01075   0.0258  0.0023  1.0000  -6.9922   0.0000   0.2150
  10.800   1.1654   0.01597   0.01109   0.0263  0.0023  1.0000  -7.1124   0.0000   0.2145
  10.900   1.1723   0.01630   0.01145   0.0268  0.0022  1.0000  -7.2294   0.0000   0.2141
  11.000   1.1787   0.01666   0.01185   0.0274  0.0022  1.0000  -7.3422   0.0000   0.2136
  11.100   1.1846   0.01705   0.01228   0.0280  0.0022  1.0000  -7.4495   0.0000   0.2131
  11.200   1.1899   0.01748   0.01276   0.0286  0.0022  1.0000  -7.5498   0.0000   0.2125
  11.300   1.1944   0.01797   0.01329   0.0293  0.0021  1.0000  -7.6406   0.0000   0.2118
  11.400   1.1978   0.01852   0.01391   0.0302  0.0021  1.0000  -7.7187   0.0000   0.2111
  11.500   1.1998   0.01916   0.01462   0.0311  0.0021  1.0000  -7.7794   0.0000   0.2102
  11.600   1.2008   0.01984   0.01535   0.0321  0.0020  1.0000  -7.8332   0.0000   0.2092
  11.700   1.2064   0.02012   0.01566   0.0327  0.0020  1.0000  -7.9581   0.0000   0.2087
  11.800   1.2116   0.02043   0.01598   0.0333  0.0020  1.0000  -8.0801   0.0000   0.2081
  11.900   1.2163   0.02074   0.01632   0.0340  0.0020  1.0000  -8.1989   0.0000   0.2075
  12.000   1.2206   0.02108   0.01668   0.0347  0.0020  1.0000  -8.3138   0.0000   0.2069
  12.100   1.2243   0.02143   0.01706   0.0355  0.0020  1.0000  -8.4244   0.0000   0.2062
  12.200   1.2275   0.02181   0.01747   0.0363  0.0020  1.0000  -8.5301   0.0000   0.2054
  12.300   1.2290   0.02222   0.01791   0.0373  0.0020  1.0000  -8.6222   0.0000   0.2045
  12.400   1.2252   0.02262   0.01834   0.0392  0.0020  1.0000  -8.6713   0.0000   0.2027
  12.500   1.2227   0.02309   0.01884   0.0406  0.0020  1.0000  -8.7299   0.0000   0.2013
  12.600   1.2203   0.02369   0.01948   0.0416  0.0020  1.0000  -8.7856   0.0000   0.2003
  12.700   1.2175   0.02452   0.02036   0.0420  0.0020  1.0000  -8.8329   0.0000   0.1997
  12.800   1.2138   0.02576   0.02165   0.0415  0.0020  1.0000  -8.8647   0.0000   0.1998
  12.900   1.2108   0.02726   0.02320   0.0404  0.0020  1.0000  -8.8969   0.0000   0.2004
  13.000   1.2083   0.02875   0.02474   0.0394  0.0020  1.0000  -8.9333   0.0000   0.2010
  13.100   1.2055   0.03026   0.02630   0.0385  0.0020  1.0000  -8.9668   0.0000   0.2014
  13.200   1.2022   0.03183   0.02791   0.0376  0.0020  1.0000  -8.9948   0.0000   0.2018
  13.300   1.1982   0.03348   0.02961   0.0368  0.0019  1.0000  -9.0159   0.0000   0.2022
  13.400   1.1936   0.03522   0.03139   0.0359  0.0019  1.0000  -9.0299   0.0000   0.2026
  13.500   1.1884   0.03706   0.03328   0.0350  0.0019  1.0000  -9.0361   0.0000   0.2030
  13.600   1.1826   0.03898   0.03525   0.0341  0.0019  1.0000  -9.0353   0.0000   0.2035
  13.700   1.1763   0.04098   0.03729   0.0332  0.0019  1.0000  -9.0274   0.0000   0.2039
  13.800   1.1693   0.04305   0.03940   0.0322  0.0019  1.0000  -9.0121   0.0000   0.2043
  13.900   1.1619   0.04519   0.04160   0.0312  0.0019  1.0000  -8.9908   0.0000   0.2048
  14.000   1.1542   0.04739   0.04383   0.0302  0.0019  1.0000  -8.9657   0.0000   0.2053
  14.100   1.1462   0.04966   0.04615   0.0292  0.0019  1.0000  -8.9348   0.0000   0.2058
  14.200   1.1378   0.05198   0.04851   0.0282  0.0019  1.0000  -8.8998   0.0000   0.2064
  14.300   1.1293   0.05432   0.05090   0.0271  0.0019  1.0000  -8.8618   0.0000   0.2069
  14.400   1.1207   0.05667   0.05329   0.0260  0.0019  1.0000  -8.8211   0.0000   0.2075
  14.500   1.1122   0.05904   0.05570   0.0250  0.0019  1.0000  -8.7798   0.0000   0.2081
  14.600   1.1038   0.06141   0.05811   0.0239  0.0019  1.0000  -8.7389   0.0000   0.2087
  14.700   1.0956   0.06376   0.06050   0.0228  0.0019  1.0000  -8.6994   0.0000   0.2093
  14.800   1.0873   0.06616   0.06293   0.0217  0.0019  1.0000  -8.6571   0.0000   0.2100
  14.900   1.0794   0.06853   0.06534   0.0207  0.0019  1.0000  -8.6175   0.0000   0.2107
  15.000   1.0724   0.07079   0.06763   0.0196  0.0019  1.0000  -8.5883   0.0000   0.2113
  15.100   1.0654   0.07312   0.06999   0.0185  0.0019  1.0000  -8.5563   0.0000   0.2121
  15.200   1.0591   0.07537   0.07228   0.0175  0.0019  1.0000  -8.5307   0.0000   0.2128
  15.300   1.0532   0.07758   0.07452   0.0165  0.0019  1.0000  -8.5099   0.0000   0.2135
  15.400   1.0475   0.07978   0.07675   0.0155  0.0019  1.0000  -8.4901   0.0000   0.2142
  15.500   1.0422   0.08191   0.07891   0.0145  0.0019  1.0000  -8.4746   0.0000   0.2149
  15.600   1.0376   0.08397   0.08099   0.0135  0.0019  1.0000  -8.4661   0.0000   0.2156
  15.700   1.0326   0.08611   0.08317   0.0125  0.0019  1.0000  -8.4516   0.0000   0.2163
  15.800   1.0289   0.08805   0.08513   0.0117  0.0019  1.0000  -8.4527   0.0000   0.2169
  15.900   1.0247   0.09010   0.08720   0.0107  0.0019  1.0000  -8.4460   0.0000   0.2176
  16.000   1.0209   0.09209   0.08921   0.0098  0.0019  1.0000  -8.4441   0.0000   0.2183
  16.100   1.0180   0.09391   0.09106   0.0090  0.0019  1.0000  -8.4530   0.0000   0.2189
  16.200   1.0147   0.09583   0.09300   0.0081  0.0019  1.0000  -8.4551   0.0000   0.2196
  16.300   1.0114   0.09775   0.09494   0.0072  0.0019  1.0000  -8.4576   0.0000   0.2203
  16.400   1.0091   0.09952   0.09673   0.0064  0.0019  1.0000  -8.4709   0.0000   0.2209
  16.500   1.0072   0.10122   0.09845   0.0056  0.0019  1.0000  -8.4891   0.0000   0.2215
  16.600   1.0044   0.10310   0.10035   0.0047  0.0019  1.0000  -8.4944   0.0000   0.2222
  16.700   1.0022   0.10487   0.10214   0.0039  0.0019  1.0000  -8.5068   0.0000   0.2228
  16.800   1.0006   0.10652   0.10381   0.0031  0.0019  1.0000  -8.5264   0.0000   0.2234
  16.900   0.9993   0.10813   0.10543   0.0024  0.0019  1.0000  -8.5498   0.0000   0.2240
  17.000   0.9977   0.10980   0.10713   0.0016  0.0019  1.0000  -8.5675   0.0000   0.2246
  17.100   0.9958   0.11155   0.10889   0.0008  0.0019  1.0000  -8.5796   0.0000   0.2253
  17.200   0.9946   0.11316   0.11052  -0.0000  0.0019  1.0000  -8.6015   0.0000   0.2259
  17.300   0.9938   0.11470   0.11208  -0.0007  0.0019  1.0000  -8.6279   0.0000   0.2264
  17.400   0.9931   0.11621   0.11361  -0.0015  0.0019  1.0000  -8.6558   0.0000   0.2270
  17.500   0.9923   0.11775   0.11516  -0.0022  0.0018  1.0000  -8.6811   0.0000   0.2276
  17.600   0.9910   0.11939   0.11682  -0.0030  0.0018  1.0000  -8.6978   0.0000   0.2282
  17.700   0.9901   0.12095   0.11840  -0.0038  0.0018  1.0000  -8.7194   0.0000   0.2288
  17.800   0.9896   0.12244   0.11991  -0.0046  0.0018  1.0000  -8.7461   0.0000   0.2294
  17.900   0.9894   0.12389   0.12137  -0.0053  0.0018  1.0000  -8.7755   0.0000   0.2300
  18.000   0.9893   0.12530   0.12280  -0.0060  0.0018  1.0000  -8.8065   0.0000   0.2305
  18.100   0.9892   0.12672   0.12423  -0.0067  0.0018  1.0000  -8.8369   0.0000   0.2310
  18.200   0.9885   0.12825   0.12578  -0.0075  0.0018  1.0000  -8.8579   0.0000   0.2317
  18.300   0.9879   0.12978   0.12733  -0.0083  0.0018  1.0000  -8.8779   0.0000   0.2323
  18.400   0.9877   0.13122   0.12879  -0.0091  0.0018  1.0000  -8.9035   0.0000   0.2329
  18.500   0.9877   0.13262   0.13020  -0.0098  0.0018  1.0000  -8.9322   0.0000   0.2335
  18.600   0.9878   0.13399   0.13159  -0.0106  0.0018  1.0000  -8.9618   0.0000   0.2340
  18.700   0.9880   0.13535   0.13296  -0.0113  0.0017  1.0000  -8.9916   0.0000   0.2346
  18.800   0.9881   0.13670   0.13433  -0.0120  0.0017  1.0000  -9.0208   0.0000   0.2351
  18.900   0.9881   0.13812   0.13577  -0.0128  0.0017  1.0000  -9.0449   0.0000   0.2357
  19.000   0.9877   0.13961   0.13728  -0.0136  0.0017  1.0000  -9.0623   0.0000   0.2364
  19.100   0.9875   0.14105   0.13873  -0.0144  0.0017  1.0000  -9.0829   0.0000   0.2370
  19.200   0.9876   0.14244   0.14014  -0.0152  0.0017  1.0000  -9.1064   0.0000   0.2376
  19.300   0.9878   0.14380   0.14152  -0.0160  0.0017  1.0000  -9.1311   0.0000   0.2382
  19.400   0.9880   0.14515   0.14289  -0.0168  0.0017  1.0000  -9.1555   0.0000   0.2388
  19.500   0.9882   0.14650   0.14426  -0.0175  0.0017  1.0000  -9.1791   0.0000   0.2394
  19.600   0.9884   0.14786   0.14563  -0.0183  0.0017  1.0000  -9.2013   0.0000   0.2400
  19.700   0.9884   0.14927   0.14706  -0.0192  0.0017  1.0000  -9.2187   0.0000   0.2406
  19.800   0.9879   0.15078   0.14859  -0.0201  0.0017  1.0000  -9.2270   0.0000   0.2414
  19.900   0.9876   0.15225   0.15009  -0.0209  0.0017  1.0000  -9.2371   0.0000   0.2421
  20.000   0.9876   0.15368   0.15154  -0.0218  0.0017  1.0000  -9.2497   0.0000   0.2428
  20.100   0.9875   0.15510   0.15297  -0.0227  0.0017  1.0000  -9.2627   0.0000   0.2435
  20.200   0.9875   0.15651   0.15440  -0.0235  0.0017  1.0000  -9.2746   0.0000   0.2442
  20.300   0.9875   0.15793   0.15584  -0.0244  0.0017  1.0000  -9.2848   0.0000   0.2449
  20.400   0.9874   0.15937   0.15730  -0.0253  0.0017  1.0000  -9.2920   0.0000   0.2456
  20.500   0.9865   0.16097   0.15893  -0.0263  0.0017  1.0000  -9.2849   0.0000   0.2465
  20.600   0.9857   0.16258   0.16057  -0.0273  0.0017  1.0000  -9.2752   0.0000   0.2474
  20.700   0.9850   0.16414   0.16215  -0.0283  0.0017  1.0000  -9.2688   0.0000   0.2482
  20.800   0.9845   0.16568   0.16371  -0.0293  0.0017  1.0000  -9.2624   0.0000   0.2491
  20.900   0.9840   0.16723   0.16528  -0.0303  0.0017  1.0000  -9.2541   0.0000   0.2499
  21.000   0.9833   0.16880   0.16688  -0.0313  0.0017  1.0000  -9.2423   0.0000   0.2508
  21.100   0.9820   0.17056   0.16866  -0.0325  0.0017  1.0000  -9.2138   0.0000   0.2519
  21.200   0.9804   0.17237   0.17050  -0.0337  0.0017  1.0000  -9.1790   0.0000   0.2530
  21.300   0.9792   0.17410   0.17226  -0.0348  0.0017  1.0000  -9.1485   0.0000   0.2541
  21.400   0.9781   0.17582   0.17401  -0.0359  0.0017  1.0000  -9.1169   0.0000   0.2552
  21.500   0.9768   0.17758   0.17580  -0.0371  0.0017  1.0000  -9.0803   0.0000   0.2563
  21.600   0.9745   0.17960   0.17785  -0.0384  0.0017  1.0000  -9.0192   0.0000   0.2576
  21.700   0.9722   0.18162   0.17990  -0.0398  0.0017  1.0000  -8.9562   0.0000   0.2590
  21.800   0.9703   0.18357   0.18188  -0.0411  0.0017  1.0000  -8.8962   0.0000   0.2603
  21.900   0.9683   0.18556   0.18390  -0.0424  0.0017  1.0000  -8.8300   0.0000   0.2617
  22.000   0.9650   0.18791   0.18628  -0.0440  0.0017  1.0000  -8.7287   0.0000   0.2634
  22.100   0.9621   0.19017   0.18858  -0.0455  0.0017  1.0000  -8.6322   0.0000   0.2650
  22.200   0.9592   0.19243   0.19087  -0.0470  0.0017  1.0000  -8.5312   0.0000   0.2667
  22.300   0.9548   0.19516   0.19364  -0.0488  0.0017  1.0000  -8.3825   0.0000   0.2688
  22.400   0.9509   0.19780   0.19632  -0.0505  0.0017  1.0000  -8.2364   0.0000   0.2708
  22.500   0.9453   0.20098   0.19953  -0.0525  0.0018  1.0000  -8.0310   0.0000   0.2734
  22.600   0.9392   0.20434   0.20294  -0.0546  0.0018  1.0000  -7.7926   0.0000   0.2761
  22.700   0.9274   0.20965   0.20832  -0.0578  0.0018  1.0000  -7.3231   0.0000   0.2807


