xflr5 v6.47

 Calculated polar for: Wing2

 1 1 Reynolds number fixed          Mach number fixed         

 xtrf =   1.000 (top)        1.000 (bottom)
 Mach =   0.000     Re =     6.000 e 6     Ncrit =   9.000

  alpha     CL        CD       CDp       Cm    Top Xtr Bot Xtr   Cpmin    Chinge    XCp    
 ------- -------- --------- --------- -------- ------- ------- -------- --------- ---------
 -22.900  -0.8711   0.22725   0.22652   0.0815  0.9997  0.0016  -7.8703   0.0000   0.3188
 -22.800  -0.8696   0.22574   0.22501   0.0805  0.9997  0.0016  -7.9350   0.0000   0.3179
 -22.700  -0.8774   0.22054   0.21979   0.0777  0.9997  0.0018  -8.6895   0.0000   0.3133
 -22.600  -0.8844   0.21610   0.21531   0.0751  0.9998  0.0018  -9.2882   0.0000   0.3093
 -22.500  -0.8844   0.21427   0.21348   0.0739  0.9998  0.0019  -9.3984   0.0000   0.3080
 -22.400  -0.8838   0.21269   0.21190   0.0729  0.9998  0.0019  -9.4641   0.0000   0.3069
 -22.300  -0.8887   0.20936   0.20854   0.0709  0.9998  0.0019  -9.8392   0.0000   0.3040
 -22.200  -0.8894   0.20743   0.20660   0.0696  0.9998  0.0019  -9.9609   0.0000   0.3026
 -22.100  -0.8892   0.20586   0.20503   0.0686  0.9998  0.0020  -10.0201   0.0000   0.3016
 -22.000  -0.8888   0.20434   0.20349   0.0676  0.9998  0.0020  -10.0696   0.0000   0.3006
 -21.900  -0.8888   0.20270   0.20185   0.0666  0.9998  0.0020  -10.1360   0.0000   0.2995
 -21.800  -0.8942   0.19946   0.19858   0.0645  0.9998  0.0020  -10.4718   0.0000   0.2967
 -21.700  -0.8944   0.19782   0.19694   0.0635  0.9998  0.0020  -10.5327   0.0000   0.2956
 -21.600  -0.8943   0.19625   0.19536   0.0625  0.9998  0.0020  -10.5810   0.0000   0.2945
 -21.500  -0.8947   0.19458   0.19369   0.0614  0.9998  0.0020  -10.6455   0.0000   0.2934
 -21.400  -0.9007   0.19136   0.19044   0.0594  0.9998  0.0020  -10.9589   0.0000   0.2906
 -21.300  -0.9016   0.18962   0.18869   0.0583  0.9998  0.0020  -11.0320   0.0000   0.2894
 -21.100  -0.8796   0.17884   0.17784   0.0431  1.0000  0.0021  -11.3689   0.0000   0.2738
 -21.000  -0.8813   0.17680   0.17579   0.0417  1.0000  0.0021  -11.4659   0.0000   0.2722
 -20.900  -0.8935   0.17399   0.17296   0.0409  1.0000  0.0021  -11.8104   0.0000   0.2706
 -20.800  -0.8981   0.17169   0.17065   0.0396  1.0000  0.0021  -11.9689   0.0000   0.2690
 -20.700  -0.9053   0.16669   0.16560   0.0352  1.0000  0.0021  -12.3744   0.0000   0.2636
 -20.600  -0.9115   0.16384   0.16273   0.0333  1.0000  0.0021  -12.5875   0.0000   0.2613
 -20.500  -0.9289   0.15865   0.15749   0.0299  1.0000  0.0021  -13.1515   0.0000   0.2568
 -20.400  -0.9519   0.15245   0.15123   0.0258  1.0000  0.0021  -13.8541   0.0000   0.2515
 -20.300  -1.2511   0.09519   0.09328  -0.0141  1.0000  0.0019  -21.6389   0.0000   0.2113
 -20.200  -1.3097   0.08341   0.08132  -0.0221  1.0000  0.0018  -22.9142   0.0000   0.2058
 -20.100  -1.3431   0.07640   0.07421  -0.0268  1.0000  0.0018  -23.5716   0.0000   0.2030
 -20.000  -1.3691   0.07082   0.06854  -0.0305  1.0000  0.0018  -24.0471   0.0000   0.2009
 -19.900  -1.3895   0.06635   0.06399  -0.0333  1.0000  0.0018  -24.3861   0.0000   0.1995
 -19.800  -1.4064   0.06255   0.06013  -0.0356  1.0000  0.0018  -24.6433   0.0000   0.1983
 -19.700  -1.4211   0.05919   0.05672  -0.0376  1.0000  0.0018  -24.8455   0.0000   0.1975
 -19.600  -1.4344   0.05613   0.05360  -0.0393  1.0000  0.0018  -25.0119   0.0000   0.1968
 -19.500  -1.4459   0.05342   0.05083  -0.0408  1.0000  0.0018  -25.1357   0.0000   0.1962
 -19.400  -1.4562   0.05094   0.04830  -0.0420  1.0000  0.0018  -25.2323   0.0000   0.1958
 -19.300  -1.4657   0.04864   0.04596  -0.0431  1.0000  0.0018  -25.3085   0.0000   0.1955
 -19.200  -1.4742   0.04656   0.04384  -0.0440  1.0000  0.0018  -25.3601   0.0000   0.1953
 -19.100  -1.4822   0.04460   0.04183  -0.0448  1.0000  0.0018  -25.3984   0.0000   0.1952
 -19.000  -1.4893   0.04280   0.04000  -0.0454  1.0000  0.0018  -25.4182   0.0000   0.1952
 -18.900  -1.4961   0.04112   0.03828  -0.0458  1.0000  0.0018  -25.4264   0.0000   0.1953
 -18.800  -1.5024   0.03957   0.03668  -0.0461  1.0000  0.0018  -25.4238   0.0000   0.1954
 -18.700  -1.5083   0.03814   0.03521  -0.0462  1.0000  0.0018  -25.4085   0.0000   0.1957
 -18.600  -1.5138   0.03681   0.03385  -0.0462  1.0000  0.0018  -25.3855   0.0000   0.1960
 -18.500  -1.5190   0.03558   0.03258  -0.0461  1.0000  0.0018  -25.3529   0.0000   0.1964
 -18.400  -1.5238   0.03444   0.03142  -0.0459  1.0000  0.0018  -25.3109   0.0000   0.1969
 -18.300  -1.5283   0.03339   0.03033  -0.0455  1.0000  0.0018  -25.2617   0.0000   0.1975
 -18.200  -1.5325   0.03241   0.02932  -0.0450  1.0000  0.0018  -25.2052   0.0000   0.1981
 -18.100  -1.5362   0.03150   0.02838  -0.0445  1.0000  0.0018  -25.1395   0.0000   0.1987
 -18.000  -1.5395   0.03065   0.02750  -0.0438  1.0000  0.0018  -25.0656   0.0000   0.1994
 -17.900  -1.5430   0.02984   0.02666  -0.0431  1.0000  0.0019  -24.9925   0.0000   0.2001
 -17.800  -1.5460   0.02909   0.02588  -0.0423  1.0000  0.0019  -24.9098   0.0000   0.2009
 -17.700  -1.5485   0.02840   0.02516  -0.0414  1.0000  0.0019  -24.8191   0.0000   0.2017
 -17.600  -1.5514   0.02773   0.02447  -0.0405  1.0000  0.0019  -24.7321   0.0000   0.2025
 -17.500  -1.5532   0.02713   0.02384  -0.0395  1.0000  0.0019  -24.6285   0.0000   0.2034
 -17.400  -1.5556   0.02655   0.02323  -0.0385  1.0000  0.0019  -24.5326   0.0000   0.2043
 -17.300  -1.5570   0.02601   0.02267  -0.0374  1.0000  0.0019  -24.4218   0.0000   0.2052
 -17.200  -1.5585   0.02550   0.02213  -0.0363  1.0000  0.0019  -24.3103   0.0000   0.2061
 -17.100  -1.5604   0.02500   0.02161  -0.0350  1.0000  0.0019  -24.2034   0.0000   0.2071
 -17.000  -1.5607   0.02456   0.02115  -0.0339  1.0000  0.0019  -24.0744   0.0000   0.2080
 -16.900  -1.5621   0.02412   0.02069  -0.0326  1.0000  0.0019  -23.9587   0.0000   0.2091
 -16.800  -1.5630   0.02372   0.02026  -0.0313  1.0000  0.0019  -23.8368   0.0000   0.2101
 -16.700  -1.5628   0.02335   0.01987  -0.0300  1.0000  0.0019  -23.6975   0.0000   0.2110
 -16.600  -1.5633   0.02300   0.01949  -0.0287  1.0000  0.0019  -23.5690   0.0000   0.2121
 -16.500  -1.5643   0.02265   0.01912  -0.0272  1.0000  0.0019  -23.4476   0.0000   0.2132
 -16.400  -1.5636   0.02233   0.01877  -0.0259  1.0000  0.0020  -23.2999   0.0000   0.2142
 -16.300  -1.5630   0.02202   0.01844  -0.0245  1.0000  0.0020  -23.1548   0.0000   0.2153
 -16.200  -1.5634   0.02172   0.01812  -0.0229  1.0000  0.0020  -23.0225   0.0000   0.2165
 -16.100  -1.5641   0.02143   0.01781  -0.0212  1.0000  0.0020  -22.8951   0.0000   0.2177
 -16.000  -1.5626   0.02116   0.01753  -0.0198  1.0000  0.0020  -22.7364   0.0000   0.2187
 -15.900  -1.5609   0.02091   0.01726  -0.0185  1.0000  0.0020  -22.5755   0.0000   0.2198
 -15.800  -1.5595   0.02068   0.01700  -0.0170  1.0000  0.0020  -22.4188   0.0000   0.2209
 -15.700  -1.5589   0.02045   0.01676  -0.0153  1.0000  0.0020  -22.2718   0.0000   0.2221
 -15.600  -1.5598   0.02025   0.01654  -0.0133  1.0000  0.0020  -22.1464   0.0000   0.2235
 -15.500  -1.5630   0.02008   0.01635  -0.0109  1.0000  0.0020  -22.0502   0.0000   0.2252
 -15.400  -1.5612   0.01988   0.01613  -0.0094  1.0000  0.0020  -21.8879   0.0000   0.2264
 -15.300  -1.5567   0.01965   0.01589  -0.0083  1.0000  0.0020  -21.6902   0.0000   0.2271
 -15.200  -1.5517   0.01943   0.01565  -0.0074  1.0000  0.0020  -21.4882   0.0000   0.2279
 -15.100  -1.5465   0.01921   0.01541  -0.0065  1.0000  0.0020  -21.2825   0.0000   0.2286
 -15.000  -1.5409   0.01899   0.01518  -0.0057  1.0000  0.0020  -21.0735   0.0000   0.2293
 -14.900  -1.5351   0.01877   0.01495  -0.0049  1.0000  0.0021  -20.8617   0.0000   0.2300
 -14.800  -1.5289   0.01856   0.01472  -0.0041  1.0000  0.0021  -20.6475   0.0000   0.2307
 -14.700  -1.5226   0.01835   0.01450  -0.0033  1.0000  0.0021  -20.4312   0.0000   0.2313
 -14.600  -1.5161   0.01815   0.01428  -0.0026  1.0000  0.0021  -20.2131   0.0000   0.2319
 -14.500  -1.5093   0.01795   0.01407  -0.0019  1.0000  0.0021  -19.9935   0.0000   0.2325
 -14.400  -1.5024   0.01775   0.01385  -0.0013  1.0000  0.0021  -19.7725   0.0000   0.2331
 -14.300  -1.4953   0.01755   0.01365  -0.0007  1.0000  0.0021  -19.5504   0.0000   0.2337
 -14.200  -1.4880   0.01736   0.01344  -0.0000  1.0000  0.0021  -19.3274   0.0000   0.2343
 -14.100  -1.4806   0.01716   0.01324   0.0005  1.0000  0.0021  -19.1036   0.0000   0.2349
 -14.000  -1.4731   0.01698   0.01304   0.0011  1.0000  0.0021  -18.8792   0.0000   0.2354
 -13.900  -1.4654   0.01679   0.01284   0.0017  1.0000  0.0021  -18.6543   0.0000   0.2359
 -13.800  -1.4576   0.01661   0.01265   0.0022  1.0000  0.0021  -18.4291   0.0000   0.2365
 -13.700  -1.4497   0.01642   0.01245   0.0027  1.0000  0.0021  -18.2036   0.0000   0.2370
 -13.600  -1.4423   0.01619   0.01220   0.0033  1.0000  0.0021  -17.9917   0.0000   0.2376
 -13.500  -1.4349   0.01595   0.01194   0.0039  1.0000  0.0022  -17.7811   0.0000   0.2382
 -13.400  -1.4272   0.01572   0.01169   0.0045  1.0000  0.0022  -17.5679   0.0000   0.2387
 -13.300  -1.4194   0.01550   0.01145   0.0050  1.0000  0.0023  -17.3529   0.0000   0.2393
 -13.200  -1.4114   0.01529   0.01123   0.0055  1.0000  0.0024  -17.1365   0.0000   0.2398
 -13.100  -1.4032   0.01509   0.01101   0.0060  1.0000  0.0024  -16.9189   0.0000   0.2403
 -13.000  -1.3949   0.01489   0.01080   0.0065  1.0000  0.0025  -16.7005   0.0000   0.2408
 -12.900  -1.3864   0.01470   0.01060   0.0069  1.0000  0.0025  -16.4812   0.0000   0.2414
 -12.800  -1.3779   0.01452   0.01041   0.0074  1.0000  0.0026  -16.2615   0.0000   0.2419
 -12.700  -1.3692   0.01434   0.01022   0.0078  1.0000  0.0026  -16.0417   0.0000   0.2423
 -12.600  -1.3605   0.01416   0.01003   0.0082  1.0000  0.0027  -15.8219   0.0000   0.2428
 -12.500  -1.3516   0.01399   0.00985   0.0086  1.0000  0.0027  -15.6022   0.0000   0.2433
 -12.400  -1.3427   0.01382   0.00968   0.0090  1.0000  0.0028  -15.3827   0.0000   0.2438
 -12.300  -1.3337   0.01365   0.00950   0.0094  1.0000  0.0028  -15.1635   0.0000   0.2443
 -12.200  -1.3246   0.01349   0.00934   0.0097  1.0000  0.0028  -14.9445   0.0000   0.2447
 -12.100  -1.3154   0.01334   0.00917   0.0101  1.0000  0.0029  -14.7261   0.0000   0.2452
 -12.000  -1.3062   0.01318   0.00902   0.0104  1.0000  0.0029  -14.5083   0.0000   0.2456
 -11.900  -1.2968   0.01303   0.00886   0.0107  1.0000  0.0030  -14.2911   0.0000   0.2461
 -11.800  -1.2875   0.01289   0.00871   0.0111  1.0000  0.0030  -14.0747   0.0000   0.2466
 -11.700  -1.2780   0.01274   0.00856   0.0114  1.0000  0.0030  -13.8591   0.0000   0.2470
 -11.600  -1.2685   0.01260   0.00841   0.0117  1.0000  0.0031  -13.6442   0.0000   0.2475
 -11.500  -1.2589   0.01246   0.00826   0.0120  1.0000  0.0031  -13.4302   0.0000   0.2479
 -11.400  -1.2493   0.01232   0.00812   0.0123  1.0000  0.0031  -13.2171   0.0000   0.2484
 -11.300  -1.2396   0.01219   0.00798   0.0126  1.0000  0.0032  -13.0050   0.0000   0.2488
 -11.200  -1.2299   0.01206   0.00785   0.0128  1.0000  0.0032  -12.7937   0.0000   0.2492
 -11.100  -1.2201   0.01193   0.00771   0.0131  1.0000  0.0032  -12.5834   0.0000   0.2497
 -11.000  -1.2103   0.01181   0.00758   0.0134  1.0000  0.0032  -12.3741   0.0000   0.2501
 -10.900  -1.2004   0.01168   0.00746   0.0136  1.0000  0.0033  -12.1658   0.0000   0.2506
 -10.800  -1.1905   0.01156   0.00733   0.0139  1.0000  0.0033  -11.9586   0.0000   0.2510
 -10.700  -1.1806   0.01144   0.00721   0.0141  1.0000  0.0033  -11.7526   0.0000   0.2514
 -10.600  -1.1706   0.01133   0.00709   0.0144  1.0000  0.0033  -11.5476   0.0000   0.2519
 -10.500  -1.1605   0.01121   0.00697   0.0146  1.0000  0.0033  -11.3439   0.0000   0.2523
 -10.400  -1.1504   0.01110   0.00685   0.0148  1.0000  0.0033  -11.1413   0.0000   0.2527
 -10.300  -1.1403   0.01099   0.00674   0.0151  1.0000  0.0033  -10.9400   0.0000   0.2532
 -10.200  -1.1302   0.01088   0.00662   0.0153  1.0000  0.0034  -10.7407   0.0000   0.2536
 -10.100  -1.1204   0.01072   0.00646   0.0156  1.0000  0.0035  -10.5499   0.0000   0.2541
 -10.000  -1.1104   0.01058   0.00631   0.0158  1.0000  0.0036  -10.3587   0.0000   0.2546
  -9.900  -1.1014   0.01084   0.00615   0.0163  0.7982  0.0038  -10.1768   0.0000   0.2553
  -9.800  -1.0918   0.01081   0.00601   0.0166  0.7471  0.0039  -9.9905   0.0000   0.2558
  -9.700  -1.0819   0.01074   0.00588   0.0168  0.7233  0.0040  -9.8016   0.0000   0.2563
  -9.600  -1.0718   0.01065   0.00575   0.0171  0.7081  0.0041  -9.6128   0.0000   0.2567
  -9.500  -1.0616   0.01057   0.00564   0.0173  0.6958  0.0042  -9.4246   0.0000   0.2572
  -9.400  -1.0513   0.01047   0.00552   0.0175  0.6873  0.0043  -9.2378   0.0000   0.2577
  -9.300  -1.0410   0.01038   0.00541   0.0177  0.6787  0.0044  -9.0623   0.0000   0.2581
  -9.200  -1.0306   0.01029   0.00531   0.0178  0.6730  0.0045  -8.8875   0.0000   0.2586
  -9.100  -1.0202   0.01021   0.00520   0.0180  0.6665  0.0046  -8.7140   0.0000   0.2591
  -9.000  -1.0098   0.01012   0.00510   0.0182  0.6611  0.0047  -8.5414   0.0000   0.2595
  -8.900  -0.9993   0.01003   0.00500   0.0184  0.6568  0.0047  -8.3699   0.0000   0.2600
  -8.800  -0.9888   0.00995   0.00491   0.0185  0.6519  0.0048  -8.1997   0.0000   0.2605
  -8.700  -0.9782   0.00988   0.00482   0.0187  0.6470  0.0048  -8.0306   0.0000   0.2610
  -8.600  -0.9676   0.00980   0.00473   0.0189  0.6438  0.0049  -7.8624   0.0000   0.2614
  -8.500  -0.9570   0.00972   0.00464   0.0190  0.6400  0.0049  -7.6956   0.0000   0.2619
  -8.400  -0.9463   0.00965   0.00456   0.0192  0.6357  0.0049  -7.5302   0.0000   0.2624
  -8.300  -0.9358   0.00955   0.00444   0.0193  0.6318  0.0051  -7.3705   0.0000   0.2629
  -8.200  -0.9253   0.00945   0.00433   0.0195  0.6289  0.0054  -7.2115   0.0000   0.2634
  -8.100  -0.9147   0.00935   0.00423   0.0197  0.6254  0.0057  -7.0529   0.0000   0.2640
  -8.000  -0.9041   0.00927   0.00413   0.0198  0.6214  0.0059  -6.8950   0.0000   0.2645
  -7.900  -0.8935   0.00918   0.00404   0.0200  0.6176  0.0061  -6.7380   0.0000   0.2650
  -7.800  -0.8828   0.00910   0.00395   0.0201  0.6148  0.0063  -6.5819   0.0000   0.2656
  -7.700  -0.8720   0.00902   0.00387   0.0203  0.6113  0.0064  -6.4270   0.0000   0.2661
  -7.600  -0.8613   0.00895   0.00379   0.0204  0.6074  0.0066  -6.2735   0.0000   0.2666
  -7.500  -0.8505   0.00888   0.00371   0.0205  0.6036  0.0067  -6.1278   0.0000   0.2672
  -7.400  -0.8396   0.00881   0.00364   0.0206  0.6005  0.0068  -5.9864   0.0000   0.2677
  -7.300  -0.8288   0.00875   0.00357   0.0207  0.5967  0.0068  -5.8461   0.0000   0.2683
  -7.200  -0.8180   0.00868   0.00348   0.0209  0.5924  0.0071  -5.7094   0.0000   0.2689
  -7.100  -0.8072   0.00860   0.00339   0.0210  0.5889  0.0076  -5.5744   0.0000   0.2695
  -7.000  -0.7964   0.00852   0.00331   0.0211  0.5850  0.0080  -5.4397   0.0000   0.2701
  -6.900  -0.7856   0.00845   0.00323   0.0213  0.5804  0.0084  -5.3057   0.0000   0.2707
  -6.800  -0.7747   0.00838   0.00316   0.0214  0.5763  0.0087  -5.1726   0.0000   0.2713
  -6.700  -0.7638   0.00832   0.00309   0.0215  0.5723  0.0089  -5.0404   0.0000   0.2719
  -6.600  -0.7528   0.00826   0.00302   0.0216  0.5672  0.0091  -4.9092   0.0000   0.2725
  -6.500  -0.7419   0.00820   0.00295   0.0217  0.5626  0.0095  -4.7807   0.0000   0.2732
  -6.400  -0.7310   0.00813   0.00287   0.0218  0.5583  0.0102  -4.6542   0.0000   0.2739
  -6.300  -0.7201   0.00806   0.00280   0.0219  0.5529  0.0107  -4.5283   0.0000   0.2745
  -6.200  -0.7092   0.00800   0.00273   0.0220  0.5484  0.0112  -4.4032   0.0000   0.2752
  -6.100  -0.6981   0.00795   0.00267   0.0221  0.5434  0.0116  -4.2790   0.0000   0.2759
  -6.000  -0.6871   0.00790   0.00261   0.0222  0.5375  0.0118  -4.1561   0.0000   0.2767
  -5.900  -0.6762   0.00783   0.00254   0.0223  0.5334  0.0129  -4.0361   0.0000   0.2774
  -5.800  -0.6652   0.00777   0.00247   0.0224  0.5280  0.0137  -3.9169   0.0000   0.2782
  -5.700  -0.6542   0.00772   0.00241   0.0225  0.5225  0.0143  -3.7998   0.0000   0.2790
  -5.600  -0.6431   0.00767   0.00235   0.0226  0.5176  0.0147  -3.6915   0.0000   0.2798
  -5.500  -0.6321   0.00762   0.00229   0.0227  0.5116  0.0157  -3.5853   0.0000   0.2806
  -5.400  -0.6211   0.00756   0.00223   0.0228  0.5070  0.0168  -3.4802   0.0000   0.2814
  -5.300  -0.6100   0.00751   0.00217   0.0228  0.5014  0.0176  -3.3757   0.0000   0.2823
  -5.200  -0.5989   0.00747   0.00212   0.0229  0.4955  0.0182  -3.2721   0.0000   0.2832
  -5.100  -0.5878   0.00742   0.00206   0.0230  0.4907  0.0197  -3.1704   0.0000   0.2841
  -5.000  -0.5768   0.00736   0.00200   0.0231  0.4845  0.0211  -3.0698   0.0000   0.2851
  -4.900  -0.5656   0.00732   0.00195   0.0232  0.4797  0.0220  -2.9696   0.0000   0.2861
  -4.800  -0.5546   0.00727   0.00190   0.0232  0.4740  0.0241  -2.8716   0.0000   0.2871
  -4.700  -0.5435   0.00722   0.00184   0.0233  0.4680  0.0256  -2.7743   0.0000   0.2882
  -4.600  -0.5323   0.00718   0.00180   0.0234  0.4631  0.0269  -2.6776   0.0000   0.2892
  -4.500  -0.5212   0.00713   0.00174   0.0235  0.4568  0.0292  -2.5831   0.0000   0.2904
  -4.400  -0.5101   0.00709   0.00170   0.0235  0.4520  0.0308  -2.4890   0.0000   0.2916
  -4.300  -0.4989   0.00704   0.00165   0.0236  0.4462  0.0331  -2.3964   0.0000   0.2928
  -4.200  -0.4878   0.00700   0.00160   0.0237  0.4402  0.0355  -2.3108   0.0000   0.2941
  -4.100  -0.4766   0.00695   0.00156   0.0237  0.4352  0.0382  -2.2281   0.0000   0.2954
  -4.000  -0.4655   0.00691   0.00151   0.0238  0.4288  0.0412  -2.1467   0.0000   0.2968
  -3.900  -0.4543   0.00686   0.00147   0.0239  0.4243  0.0441  -2.0659   0.0000   0.2982
  -3.800  -0.4432   0.00682   0.00143   0.0239  0.4186  0.0471  -1.9863   0.0000   0.2998
  -3.700  -0.4320   0.00679   0.00139   0.0240  0.4127  0.0499  -1.9075   0.0000   0.3013
  -3.600  -0.4208   0.00674   0.00135   0.0240  0.4077  0.0538  -1.8304   0.0000   0.3030
  -3.500  -0.4097   0.00670   0.00131   0.0241  0.4013  0.0579  -1.7607   0.0000   0.3048
  -3.400  -0.3984   0.00666   0.00127   0.0241  0.3969  0.0616  -1.6916   0.0000   0.3066
  -3.300  -0.3872   0.00662   0.00124   0.0242  0.3917  0.0657  -1.6235   0.0000   0.3086
  -3.200  -0.3760   0.00659   0.00120   0.0242  0.3857  0.0693  -1.5561   0.0000   0.3106
  -3.100  -0.3648   0.00655   0.00117   0.0243  0.3813  0.0742  -1.4896   0.0000   0.3128
  -3.000  -0.3535   0.00652   0.00114   0.0243  0.3752  0.0778  -1.4288   0.0000   0.3151
  -2.900  -0.3423   0.00649   0.00111   0.0244  0.3704  0.0823  -1.3696   0.0000   0.3175
  -2.800  -0.3310   0.00646   0.00108   0.0244  0.3658  0.0864  -1.3111   0.0000   0.3201
  -2.700  -0.3198   0.00643   0.00105   0.0245  0.3601  0.0915  -1.2539   0.0000   0.3229
  -2.600  -0.3085   0.00640   0.00103   0.0245  0.3563  0.0956  -1.2017   0.0000   0.3259
  -2.500  -0.2972   0.00636   0.00100   0.0245  0.3514  0.1009  -1.1502   0.0000   0.3291
  -2.400  -0.2859   0.00634   0.00098   0.0246  0.3453  0.1058  -1.0998   0.0000   0.3325
  -2.300  -0.2746   0.00630   0.00095   0.0246  0.3418  0.1119  -1.0538   0.0000   0.3363
  -2.100  -0.2521   0.00624   0.00090   0.0247  0.3317  0.1248  -0.9655   0.0000   0.3447
  -2.000  -0.2408   0.00621   0.00088   0.0247  0.3290  0.1316  -0.9246   0.0000   0.3495
  -1.800  -0.2183   0.00614   0.00084   0.0248  0.3195  0.1480  -0.8485   0.0000   0.3605
  -1.700  -0.2071   0.00609   0.00082   0.0248  0.3163  0.1575  -0.8127   0.0000   0.3669
  -1.600  -0.1958   0.00605   0.00080   0.0249  0.3123  0.1672  -0.7795   0.0000   0.3741
  -1.500  -0.1846   0.00602   0.00078   0.0249  0.3073  0.1776  -0.7470   0.0000   0.3821
  -1.400  -0.1734   0.00597   0.00076   0.0249  0.3039  0.1889  -0.7169   0.0000   0.3911
  -1.300  -0.1622   0.00592   0.00074   0.0250  0.3011  0.2009  -0.6874   0.0000   0.4014
  -1.200  -0.1510   0.00588   0.00072   0.0250  0.2976  0.2141  -0.6600   0.0000   0.4132
  -1.100  -0.1398   0.00584   0.00070   0.0251  0.2929  0.2277  -0.6332   0.0000   0.4269
  -1.000  -0.1286   0.00578   0.00068   0.0251  0.2903  0.2424  -0.6081   0.0000   0.4429
  -0.900  -0.1174   0.00572   0.00067   0.0251  0.2872  0.2575  -0.5834   0.0000   0.4620
  -0.800  -0.1062   0.00568   0.00065   0.0252  0.2830  0.2724  -0.5722   0.0000   0.4850
  -0.700  -0.0951   0.00564   0.00064   0.0252  0.2785  0.2878  -0.5865   0.0000   0.5135
  -0.600  -0.0838   0.00559   0.00063   0.0252  0.2763  0.3026  -0.6009   0.0000   0.5497
  -0.500  -0.0726   0.00555   0.00062   0.0253  0.2733  0.3166  -0.6154   0.0000   0.5972
  -0.400  -0.0613   0.00552   0.00061   0.0253  0.2699  0.3300  -0.6299   0.0000   0.6621
  -0.200  -0.0387   0.00546   0.00060   0.0253  0.2642  0.3535  -0.6598   0.0000   0.9067
  -0.100  -0.0273   0.00543   0.00059   0.0253  0.2617  0.3645  -0.6755   0.0000   1.1820
   0.000  -0.0160   0.00541   0.00059   0.0253  0.2584  0.3761  -0.6911   0.0000   1.8441
   0.100  -0.0047   0.00540   0.00059   0.0254  0.2540  0.3861  -0.7068   0.0000   5.7190
   0.200   0.0067   0.00538   0.00059   0.0254  0.2517  0.3955  -0.7227   0.0000  -3.5518
   0.300   0.0181   0.00536   0.00059   0.0254  0.2492  0.4056  -0.7386   0.0000  -1.1674
   0.400   0.0295   0.00535   0.00059   0.0254  0.2461  0.4150  -0.7545   0.0000  -0.6229
   0.500   0.0409   0.00535   0.00059   0.0254  0.2424  0.4221  -0.7705   0.0000  -0.3801
   0.600   0.0523   0.00533   0.00059   0.0254  0.2398  0.4316  -0.7866   0.0000  -0.2439
   0.700   0.0637   0.00532   0.00060   0.0254  0.2382  0.4404  -0.8029   0.0000  -0.1561
   0.800   0.0752   0.00531   0.00060   0.0254  0.2361  0.4490  -0.8201   0.0000  -0.0950
   0.900   0.0866   0.00530   0.00060   0.0254  0.2334  0.4575  -0.8373   0.0000  -0.0502
   1.000   0.0980   0.00531   0.00061   0.0254  0.2302  0.4651  -0.8546   0.0000  -0.0156
   1.100   0.1094   0.00529   0.00062   0.0254  0.2274  0.4747  -0.8719   0.0000   0.0115
   1.200   0.1208   0.00528   0.00062   0.0254  0.2260  0.4836  -0.8894   0.0000   0.0337
   1.300   0.1323   0.00527   0.00063   0.0254  0.2239  0.4930  -0.9069   0.0000   0.0520
   1.400   0.1436   0.00526   0.00063   0.0254  0.2212  0.5036  -0.9244   0.0000   0.0673
   1.500   0.1550   0.00526   0.00065   0.0254  0.2177  0.5144  -0.9419   0.0000   0.0803
   1.600   0.1663   0.00525   0.00065   0.0254  0.2150  0.5259  -0.9596   0.0000   0.0915
   1.700   0.1777   0.00523   0.00066   0.0254  0.2135  0.5381  -0.9774   0.0000   0.1014
   1.800   0.1891   0.00521   0.00067   0.0254  0.2116  0.5517  -0.9952   0.0000   0.1099
   1.900   0.2003   0.00519   0.00068   0.0254  0.2094  0.5667  -1.0129   0.0000   0.1175
   2.000   0.2116   0.00516   0.00069   0.0254  0.2068  0.5844  -1.0314   0.0000   0.1241
   2.100   0.2227   0.00512   0.00070   0.0255  0.2037  0.6066  -1.0501   0.0000   0.1300
   2.200   0.2337   0.00505   0.00071   0.0255  0.2025  0.6360  -1.0689   0.0000   0.1352
   2.300   0.2446   0.00497   0.00071   0.0256  0.2013  0.6689  -1.0877   0.0000   0.1398
   2.400   0.2556   0.00490   0.00073   0.0256  0.1997  0.6978  -1.1066   0.0000   0.1441
   2.500   0.2666   0.00486   0.00074   0.0257  0.1978  0.7218  -1.1256   0.0000   0.1480
   2.600   0.2778   0.00483   0.00076   0.0258  0.1955  0.7408  -1.1448   0.0000   0.1517
   2.700   0.2890   0.00483   0.00078   0.0258  0.1927  0.7554  -1.1641   0.0000   0.1551
   2.800   0.3002   0.00480   0.00079   0.0258  0.1910  0.7714  -1.1835   0.0000   0.1583
   2.900   0.3115   0.00479   0.00081   0.0258  0.1901  0.7816  -1.2032   0.0000   0.1614
   3.000   0.3227   0.00477   0.00082   0.0259  0.1888  0.7948  -1.2227   0.0000   0.1641
   3.100   0.3341   0.00478   0.00084   0.0259  0.1872  0.8022  -1.2425   0.0000   0.1668
   3.200   0.3453   0.00478   0.00087   0.0259  0.1853  0.8132  -1.2622   0.0000   0.1691
   3.300   0.3565   0.00479   0.00089   0.0260  0.1829  0.8226  -1.2820   0.0000   0.1714
   3.400   0.3679   0.00481   0.00091   0.0260  0.1801  0.8283  -1.3019   0.0000   0.1736
   3.500   0.3793   0.00482   0.00093   0.0260  0.1791  0.8357  -1.3220   0.0000   0.1756
   3.600   0.3905   0.00481   0.00095   0.0261  0.1780  0.8451  -1.3420   0.0000   0.1774
   3.700   0.4018   0.00482   0.00097   0.0261  0.1766  0.8521  -1.3622   0.0000   0.1791
   3.800   0.4131   0.00484   0.00100   0.0261  0.1748  0.8567  -1.3825   0.0000   0.1809
   3.900   0.4245   0.00487   0.00103   0.0261  0.1728  0.8604  -1.4029   0.0000   0.1825
   4.000   0.4357   0.00488   0.00105   0.0262  0.1706  0.8695  -1.4230   0.0000   0.1839
   4.100   0.4468   0.00489   0.00108   0.0262  0.1683  0.8767  -1.4438   0.0000   0.1852
   4.200   0.4580   0.00490   0.00110   0.0263  0.1677  0.8826  -1.4655   0.0000   0.1865
   4.300   0.4694   0.00491   0.00113   0.0263  0.1670  0.8867  -1.4873   0.0000   0.1878
   4.400   0.4808   0.00494   0.00115   0.0263  0.1660  0.8895  -1.5093   0.0000   0.1891
   4.500   0.4922   0.00496   0.00118   0.0263  0.1647  0.8940  -1.5312   0.0000   0.1903
   4.600   0.5031   0.00497   0.00121   0.0264  0.1633  0.9021  -1.5528   0.0000   0.1912
   4.700   0.5141   0.00499   0.00124   0.0265  0.1617  0.9088  -1.5745   0.0000   0.1920
   4.800   0.5251   0.00502   0.00127   0.0266  0.1597  0.9145  -1.5963   0.0000   0.1929
   4.900   0.5364   0.00505   0.00130   0.0266  0.1576  0.9188  -1.6184   0.0000   0.1939
   5.000   0.5478   0.00507   0.00133   0.0266  0.1568  0.9217  -1.6408   0.0000   0.1948
   5.100   0.5592   0.00509   0.00136   0.0266  0.1563  0.9237  -1.6634   0.0000   0.1958
   5.200   0.5706   0.00512   0.00139   0.0266  0.1555  0.9278  -1.6859   0.0000   0.1966
   5.300   0.5816   0.00514   0.00142   0.0267  0.1543  0.9356  -1.7082   0.0000   0.1973
   5.400   0.5926   0.00517   0.00146   0.0268  0.1518  0.9422  -1.7304   0.0000   0.1979
   5.500   0.6035   0.00523   0.00151   0.0268  0.1482  0.9479  -1.7526   0.0000   0.1985
   5.600   0.6146   0.00526   0.00155   0.0269  0.1461  0.9528  -1.7751   0.0000   0.1992
   5.700   0.6258   0.00529   0.00158   0.0269  0.1454  0.9564  -1.7980   0.0000   0.1998
   5.800   0.6371   0.00533   0.00161   0.0270  0.1438  0.9588  -1.8209   0.0000   0.2005
   5.900   0.6482   0.00538   0.00166   0.0270  0.1413  0.9604  -1.8437   0.0000   0.2011
   6.000   0.6600   0.00545   0.00170   0.0269  0.1380  0.9649  -1.8673   0.0000   0.2019
   6.100   0.6725   0.00549   0.00175   0.0266  0.1355  0.9705  -1.8918   0.0000   0.2030
   6.200   0.6854   0.00553   0.00178   0.0262  0.1345  0.9749  -1.9169   0.0000   0.2042
   6.300   0.6981   0.00558   0.00182   0.0259  0.1321  0.9785  -1.9420   0.0000   0.2053
   6.400   0.7106   0.00566   0.00188   0.0256  0.1282  0.9815  -1.9680   0.0000   0.2063
   6.500   0.7231   0.00572   0.00193   0.0253  0.1251  0.9839  -2.0017   0.0000   0.2072
   6.600   0.7355   0.00577   0.00197   0.0250  0.1235  0.9859  -2.1039   0.0000   0.2081
   6.700   0.7477   0.00585   0.00203   0.0248  0.1197  0.9876  -2.2063   0.0000   0.2088
   6.800   0.7598   0.00594   0.00209   0.0246  0.1152  0.9891  -2.3099   0.0000   0.2096
   6.900   0.7720   0.00599   0.00214   0.0244  0.1129  0.9903  -2.4155   0.0000   0.2103
   7.000   0.7839   0.00612   0.00223   0.0242  0.1072  0.9913  -2.5203   0.0000   0.2109
   7.100   0.7958   0.00621   0.00230   0.0240  0.1021  0.9923  -2.6269   0.0000   0.2115
   7.200   0.8073   0.00640   0.00243   0.0238  0.0919  0.9932  -2.7314   0.0000   0.2121
   7.300   0.8169   0.00695   0.00280   0.0238  0.0611  0.9941  -2.8244   0.0000   0.2124
   7.400   0.8246   0.00793   0.00353   0.0239  0.0092  0.9951  -2.9009   0.0000   0.2123
   7.500   0.8362   0.00808   0.00365   0.0238  0.0054  0.9957  -3.0081   0.0000   0.2128
   7.600   0.8480   0.00820   0.00376   0.0236  0.0036  0.9962  -3.1159   0.0000   0.2133
   7.700   0.8598   0.00830   0.00386   0.0234  0.0030  0.9966  -3.2412   0.0000   0.2138
   7.800   0.8716   0.00842   0.00397   0.0232  0.0020  0.9970  -3.3571   0.0000   0.2143
   7.900   0.8836   0.00850   0.00405   0.0230  0.0020  0.9973  -3.4886   0.0000   0.2148
   8.000   0.8956   0.00859   0.00413   0.0228  0.0019  0.9976  -3.6213   0.0000   0.2152
   8.100   0.9077   0.00868   0.00422   0.0226  0.0019  0.9979  -3.7555   0.0000   0.2157
   8.200   0.9197   0.00877   0.00432   0.0224  0.0018  0.9981  -3.8916   0.0000   0.2162
   8.300   0.9318   0.00886   0.00441   0.0221  0.0018  0.9983  -4.0298   0.0000   0.2166
   8.400   0.9440   0.00896   0.00451   0.0219  0.0017  0.9985  -4.1701   0.0000   0.2171
   8.500   0.9562   0.00906   0.00461   0.0216  0.0017  0.9987  -4.3122   0.0000   0.2176
   8.600   0.9683   0.00916   0.00471   0.0214  0.0016  0.9989  -4.4560   0.0000   0.2180
   8.700   0.9803   0.00926   0.00481   0.0211  0.0016  0.9990  -4.6012   0.0000   0.2184
   8.800   0.9922   0.00937   0.00491   0.0209  0.0016  0.9992  -4.7477   0.0000   0.2187
   8.900   1.0041   0.00947   0.00502   0.0207  0.0015  0.9993  -4.8954   0.0000   0.2191
   9.000   1.0158   0.00958   0.00513   0.0205  0.0015  0.9994  -5.0441   0.0000   0.2194
   9.100   1.0274   0.00969   0.00524   0.0203  0.0015  0.9994  -5.1938   0.0000   0.2196
   9.200   1.0389   0.00980   0.00536   0.0202  0.0015  0.9995  -5.3444   0.0000   0.2198
   9.300   1.0502   0.00991   0.00547   0.0201  0.0014  0.9996  -5.4959   0.0000   0.2200
   9.400   1.0615   0.01003   0.00559   0.0200  0.0014  0.9997  -5.6485   0.0000   0.2202
   9.500   1.0727   0.01015   0.00571   0.0199  0.0014  0.9997  -5.8024   0.0000   0.2203
   9.600   1.0838   0.01027   0.00583   0.0198  0.0014  0.9998  -5.9575   0.0000   0.2204
   9.700   1.0949   0.01039   0.00596   0.0198  0.0014  0.9998  -6.1139   0.0000   0.2206
   9.800   1.1060   0.01051   0.00609   0.0197  0.0014  0.9999  -6.2716   0.0000   0.2207
   9.900   1.1170   0.01064   0.00622   0.0196  0.0013  0.9999  -6.4307   0.0000   0.2208
  10.000   1.1280   0.01077   0.00636   0.0196  0.0013  1.0000  -6.5909   0.0000   0.2209
  10.100   1.1390   0.01091   0.00650   0.0195  0.0013  1.0000  -6.7523   0.0000   0.2209
  10.200   1.1487   0.01104   0.00664   0.0197  0.0013  1.0000  -6.9066   0.0000   0.2208
  10.300   1.1583   0.01118   0.00678   0.0199  0.0013  1.0000  -7.0603   0.0000   0.2206
  10.400   1.1677   0.01132   0.00693   0.0202  0.0012  1.0000  -7.2150   0.0000   0.2204
  10.500   1.1772   0.01146   0.00708   0.0204  0.0012  1.0000  -7.3705   0.0000   0.2202
  10.600   1.1866   0.01160   0.00723   0.0206  0.0012  1.0000  -7.5269   0.0000   0.2200
  10.700   1.1960   0.01175   0.00739   0.0209  0.0012  1.0000  -7.6840   0.0000   0.2197
  10.800   1.2052   0.01191   0.00756   0.0211  0.0012  1.0000  -7.8416   0.0000   0.2195
  10.900   1.2145   0.01207   0.00773   0.0214  0.0012  1.0000  -7.9997   0.0000   0.2193
  11.000   1.2236   0.01223   0.00790   0.0217  0.0012  1.0000  -8.1581   0.0000   0.2190
  11.100   1.2327   0.01240   0.00808   0.0220  0.0011  1.0000  -8.3166   0.0000   0.2188
  11.200   1.2416   0.01258   0.00827   0.0222  0.0011  1.0000  -8.4749   0.0000   0.2185
  11.300   1.2505   0.01276   0.00847   0.0225  0.0011  1.0000  -8.6327   0.0000   0.2183
  11.400   1.2592   0.01296   0.00868   0.0229  0.0011  1.0000  -8.7895   0.0000   0.2180
  11.500   1.2678   0.01317   0.00891   0.0232  0.0011  1.0000  -8.9444   0.0000   0.2177
  11.600   1.2761   0.01339   0.00916   0.0235  0.0010  1.0000  -9.0963   0.0000   0.2174
  11.700   1.2842   0.01365   0.00944   0.0239  0.0010  1.0000  -9.2424   0.0000   0.2171
  11.800   1.2916   0.01397   0.00980   0.0244  0.0010  1.0000  -9.3739   0.0000   0.2167
  11.900   1.2964   0.01457   0.01048   0.0251  0.0009  1.0000  -9.4453   0.0000   0.2160
  12.000   1.3050   0.01472   0.01064   0.0254  0.0009  1.0000  -9.6206   0.0000   0.2157
  12.100   1.3135   0.01488   0.01081   0.0258  0.0009  1.0000  -9.7965   0.0000   0.2155
  12.200   1.3218   0.01505   0.01097   0.0261  0.0009  1.0000  -9.9731   0.0000   0.2152
  12.300   1.3301   0.01521   0.01114   0.0265  0.0009  1.0000  -10.1501   0.0000   0.2149
  12.400   1.3383   0.01538   0.01132   0.0268  0.0009  1.0000  -10.3276   0.0000   0.2145
  12.500   1.3464   0.01555   0.01149   0.0272  0.0009  1.0000  -10.5055   0.0000   0.2142
  12.600   1.3543   0.01572   0.01167   0.0276  0.0009  1.0000  -10.6837   0.0000   0.2139
  12.700   1.3622   0.01590   0.01186   0.0280  0.0009  1.0000  -10.8621   0.0000   0.2135
  12.800   1.3699   0.01608   0.01204   0.0284  0.0009  1.0000  -11.0406   0.0000   0.2132
  12.900   1.3775   0.01626   0.01223   0.0289  0.0009  1.0000  -11.2191   0.0000   0.2128
  13.000   1.3849   0.01644   0.01242   0.0293  0.0009  1.0000  -11.3975   0.0000   0.2124
  13.100   1.3922   0.01663   0.01262   0.0298  0.0009  1.0000  -11.5757   0.0000   0.2120
  13.200   1.3994   0.01683   0.01282   0.0303  0.0009  1.0000  -11.7536   0.0000   0.2116
  13.300   1.4064   0.01702   0.01303   0.0308  0.0009  1.0000  -11.9311   0.0000   0.2112
  13.400   1.4132   0.01722   0.01323   0.0313  0.0009  1.0000  -12.1082   0.0000   0.2108
  13.500   1.4199   0.01743   0.01345   0.0318  0.0009  1.0000  -12.2848   0.0000   0.2103
  13.600   1.4265   0.01764   0.01367   0.0323  0.0009  1.0000  -12.4610   0.0000   0.2099
  13.700   1.4329   0.01786   0.01390   0.0329  0.0009  1.0000  -12.6367   0.0000   0.2094
  13.800   1.4392   0.01808   0.01413   0.0334  0.0009  1.0000  -12.8121   0.0000   0.2090
  13.900   1.4454   0.01831   0.01437   0.0340  0.0009  1.0000  -12.9872   0.0000   0.2085
  14.000   1.4514   0.01855   0.01462   0.0345  0.0009  1.0000  -13.1617   0.0000   0.2081
  14.100   1.4573   0.01880   0.01488   0.0350  0.0009  1.0000  -13.3354   0.0000   0.2076
  14.200   1.4630   0.01906   0.01515   0.0356  0.0008  1.0000  -13.5076   0.0000   0.2072
  14.300   1.4684   0.01933   0.01544   0.0361  0.0008  1.0000  -13.6775   0.0000   0.2067
  14.400   1.4736   0.01962   0.01574   0.0367  0.0008  1.0000  -13.8454   0.0000   0.2062
  14.500   1.4773   0.01993   0.01606   0.0375  0.0008  1.0000  -13.9972   0.0000   0.2056
  14.600   1.4743   0.02022   0.01638   0.0394  0.0008  1.0000  -14.0781   0.0000   0.2040
  14.700   1.4736   0.02055   0.01672   0.0409  0.0008  1.0000  -14.1820   0.0000   0.2029
  14.800   1.4738   0.02093   0.01712   0.0420  0.0008  1.0000  -14.2948   0.0000   0.2019
  14.900   1.4730   0.02140   0.01762   0.0430  0.0008  1.0000  -14.3939   0.0000   0.2011
  15.000   1.4717   0.02199   0.01823   0.0437  0.0008  1.0000  -14.4854   0.0000   0.2004
  15.100   1.4697   0.02274   0.01902   0.0441  0.0008  1.0000  -14.5651   0.0000   0.1999
  15.200   1.4671   0.02371   0.02002   0.0440  0.0008  1.0000  -14.6321   0.0000   0.1996
  15.300   1.4647   0.02484   0.02119   0.0436  0.0008  1.0000  -14.6977   0.0000   0.1997
  15.400   1.4628   0.02604   0.02243   0.0429  0.0008  1.0000  -14.7682   0.0000   0.1998
  15.500   1.4610   0.02729   0.02371   0.0423  0.0008  1.0000  -14.8391   0.0000   0.2000
  15.600   1.4589   0.02858   0.02503   0.0418  0.0008  1.0000  -14.9054   0.0000   0.2001
  15.700   1.4563   0.02992   0.02640   0.0412  0.0008  1.0000  -14.9652   0.0000   0.2002
  15.800   1.4530   0.03135   0.02786   0.0407  0.0008  1.0000  -15.0147   0.0000   0.2003
  15.900   1.4490   0.03284   0.02939   0.0401  0.0008  1.0000  -15.0558   0.0000   0.2004
  16.000   1.4442   0.03445   0.03104   0.0394  0.0008  1.0000  -15.0837   0.0000   0.2005
  16.100   1.4388   0.03613   0.03275   0.0388  0.0008  1.0000  -15.1029   0.0000   0.2007
  16.200   1.4323   0.03794   0.03461   0.0380  0.0008  1.0000  -15.1047   0.0000   0.2008
  16.300   1.4251   0.03986   0.03656   0.0373  0.0008  1.0000  -15.0971   0.0000   0.2010
  16.400   1.4173   0.04189   0.03863   0.0364  0.0008  1.0000  -15.0784   0.0000   0.2012
  16.500   1.4082   0.04410   0.04089   0.0355  0.0008  1.0000  -15.0400   0.0000   0.2015
  16.600   1.3987   0.04639   0.04323   0.0345  0.0008  1.0000  -14.9941   0.0000   0.2018
  16.700   1.3885   0.04879   0.04567   0.0334  0.0008  1.0000  -14.9360   0.0000   0.2021
  16.800   1.3766   0.05141   0.04834   0.0322  0.0008  1.0000  -14.8514   0.0000   0.2026
  16.900   1.3642   0.05414   0.05111   0.0310  0.0008  1.0000  -14.7579   0.0000   0.2030
  17.000   1.3516   0.05693   0.05395   0.0297  0.0008  1.0000  -14.6589   0.0000   0.2035
  17.100   1.3386   0.05981   0.05689   0.0284  0.0008  1.0000  -14.5507   0.0000   0.2041
  17.200   1.3249   0.06283   0.05996   0.0269  0.0008  1.0000  -14.4310   0.0000   0.2047
  17.300   1.3110   0.06594   0.06311   0.0254  0.0008  1.0000  -14.3040   0.0000   0.2055
  17.400   1.2974   0.06909   0.06631   0.0239  0.0008  1.0000  -14.1782   0.0000   0.2062
  17.500   1.2841   0.07224   0.06951   0.0223  0.0008  1.0000  -14.0547   0.0000   0.2070
  17.600   1.2706   0.07549   0.07281   0.0207  0.0008  1.0000  -13.9232   0.0000   0.2079
  17.700   1.2568   0.07879   0.07615   0.0190  0.0008  1.0000  -13.7861   0.0000   0.2089
  17.800   1.2435   0.08207   0.07948   0.0174  0.0008  1.0000  -13.6538   0.0000   0.2099
  17.900   1.2327   0.08501   0.08246   0.0159  0.0008  1.0000  -13.5578   0.0000   0.2107
  18.000   1.2219   0.08799   0.08547   0.0144  0.0008  1.0000  -13.4604   0.0000   0.2117
  18.100   1.2098   0.09120   0.08874   0.0127  0.0008  1.0000  -13.3367   0.0000   0.2127
  18.200   1.2024   0.09366   0.09122   0.0115  0.0008  1.0000  -13.2894   0.0000   0.2135
  18.300   1.1909   0.09685   0.09445   0.0098  0.0008  1.0000  -13.1711   0.0000   0.2146
  18.400   1.1848   0.09916   0.09679   0.0086  0.0008  1.0000  -13.1406   0.0000   0.2154
  18.500   1.1744   0.10223   0.09989   0.0070  0.0008  1.0000  -13.0340   0.0000   0.2165
  18.600   1.1691   0.10442   0.10211   0.0059  0.0008  1.0000  -13.0128   0.0000   0.2173
  18.700   1.1598   0.10732   0.10505   0.0043  0.0008  1.0000  -12.9190   0.0000   0.2184
  18.800   1.1549   0.10948   0.10723   0.0031  0.0008  1.0000  -12.9015   0.0000   0.2192
  18.900   1.1505   0.11157   0.10934   0.0020  0.0008  1.0000  -12.8896   0.0000   0.2200
  19.000   1.1425   0.11432   0.11212   0.0005  0.0008  1.0000  -12.8115   0.0000   0.2211
  19.100   1.1390   0.11627   0.11409  -0.0006  0.0008  1.0000  -12.8122   0.0000   0.2219
  19.200   1.1357   0.11817   0.11601  -0.0016  0.0008  1.0000  -12.8166   0.0000   0.2226
  19.300   1.1284   0.12082   0.11869  -0.0031  0.0008  1.0000  -12.7429   0.0000   0.2238
  19.400   1.1255   0.12267   0.12056  -0.0041  0.0008  1.0000  -12.7507   0.0000   0.2245
  19.500   1.1231   0.12444   0.12234  -0.0051  0.0008  1.0000  -12.7665   0.0000   0.2252
  19.600   1.1179   0.12673   0.12466  -0.0065  0.0008  1.0000  -12.7272   0.0000   0.2262
  19.700   1.1143   0.12875   0.12670  -0.0076  0.0008  1.0000  -12.7149   0.0000   0.2271
  19.800   1.1123   0.13045   0.12842  -0.0086  0.0008  1.0000  -12.7349   0.0000   0.2278
  19.900   1.1108   0.13207   0.13005  -0.0096  0.0008  1.0000  -12.7619   0.0000   0.2285
  20.000   1.1071   0.13409   0.13210  -0.0108  0.0008  1.0000  -12.7456   0.0000   0.2294
  20.100   1.1032   0.13618   0.13420  -0.0120  0.0008  1.0000  -12.7212   0.0000   0.2304
  20.200   1.1018   0.13778   0.13581  -0.0130  0.0008  1.0000  -12.7481   0.0000   0.2311
  20.300   1.1008   0.13932   0.13737  -0.0139  0.0008  1.0000  -12.7804   0.0000   0.2317
  20.400   1.0997   0.14087   0.13893  -0.0149  0.0008  1.0000  -12.8109   0.0000   0.2324
  20.500   1.0956   0.14302   0.14110  -0.0162  0.0008  1.0000  -12.7756   0.0000   0.2335
  20.600   1.0936   0.14476   0.14286  -0.0173  0.0008  1.0000  -12.7830   0.0000   0.2343
  20.700   1.0927   0.14627   0.14439  -0.0182  0.0008  1.0000  -12.8140   0.0000   0.2350
  20.800   1.0920   0.14774   0.14587  -0.0191  0.0008  1.0000  -12.8491   0.0000   0.2356
  20.900   1.0914   0.14920   0.14735  -0.0201  0.0008  1.0000  -12.8841   0.0000   0.2363
  21.000   1.0900   0.15081   0.14897  -0.0211  0.0008  1.0000  -12.9021   0.0000   0.2370
  21.100   1.0863   0.15290   0.15108  -0.0225  0.0008  1.0000  -12.8653   0.0000   0.2382
  21.200   1.0855   0.15441   0.15261  -0.0234  0.0008  1.0000  -12.8924   0.0000   0.2389
  21.300   1.0851   0.15583   0.15403  -0.0244  0.0008  1.0000  -12.9288   0.0000   0.2396
  21.400   1.0850   0.15719   0.15541  -0.0252  0.0008  1.0000  -12.9703   0.0000   0.2402
  21.500   1.0849   0.15858   0.15681  -0.0262  0.0007  1.0000  -13.0087   0.0000   0.2408
  21.600   1.0838   0.16014   0.15839  -0.0272  0.0007  1.0000  -13.0260   0.0000   0.2416
  21.700   1.0803   0.16219   0.16046  -0.0286  0.0007  1.0000  -12.9855   0.0000   0.2428
  21.800   1.0798   0.16364   0.16192  -0.0296  0.0007  1.0000  -13.0131   0.0000   0.2435
  21.900   1.0798   0.16498   0.16327  -0.0305  0.0007  1.0000  -13.0523   0.0000   0.2441
  22.000   1.0799   0.16631   0.16461  -0.0314  0.0007  1.0000  -13.0924   0.0000   0.2447
  22.100   1.0799   0.16764   0.16596  -0.0323  0.0007  1.0000  -13.1303   0.0000   0.2454
  22.200   1.0797   0.16902   0.16734  -0.0332  0.0007  1.0000  -13.1631   0.0000   0.2460
  22.300   1.0765   0.17104   0.16939  -0.0346  0.0007  1.0000  -13.1172   0.0000   0.2473
  22.400   1.0757   0.17256   0.17092  -0.0357  0.0007  1.0000  -13.1316   0.0000   0.2481
  22.500   1.0757   0.17390   0.17227  -0.0366  0.0007  1.0000  -13.1653   0.0000   0.2487
  22.600   1.0760   0.17520   0.17358  -0.0376  0.0007  1.0000  -13.2029   0.0000   0.2494
  22.700   1.0762   0.17649   0.17489  -0.0385  0.0007  1.0000  -13.2400   0.0000   0.2500
  22.800   1.0763   0.17781   0.17622  -0.0394  0.0007  1.0000  -13.2736   0.0000   0.2507
  22.900   1.0762   0.17917   0.17759  -0.0404  0.0007  1.0000  -13.3009   0.0000   0.2514
  23.000   1.0732   0.18116   0.17960  -0.0418  0.0007  1.0000  -13.2485   0.0000   0.2526
  23.100   1.0727   0.18262   0.18108  -0.0429  0.0007  1.0000  -13.2618   0.0000   0.2534
  23.200   1.0728   0.18393   0.18240  -0.0438  0.0007  1.0000  -13.2912   0.0000   0.2541
  23.300   1.0730   0.18522   0.18370  -0.0448  0.0007  1.0000  -13.3238   0.0000   0.2548
  23.400   1.0733   0.18650   0.18499  -0.0457  0.0007  1.0000  -13.3556   0.0000   0.2554
  23.500   1.0735   0.18780   0.18630  -0.0467  0.0007  1.0000  -13.3838   0.0000   0.2561
  23.600   1.0735   0.18914   0.18766  -0.0477  0.0007  1.0000  -13.4055   0.0000   0.2568
  23.700   1.0709   0.19107   0.18961  -0.0491  0.0007  1.0000  -13.3514   0.0000   0.2581
  23.800   1.0704   0.19253   0.19108  -0.0502  0.0007  1.0000  -13.3555   0.0000   0.2589
  23.900   1.0705   0.19384   0.19241  -0.0512  0.0007  1.0000  -13.3776   0.0000   0.2596
  24.000   1.0708   0.19512   0.19370  -0.0521  0.0007  1.0000  -13.4030   0.0000   0.2603
  24.100   1.0711   0.19640   0.19499  -0.0531  0.0007  1.0000  -13.4272   0.0000   0.2610
  24.200   1.0712   0.19771   0.19631  -0.0541  0.0007  1.0000  -13.4468   0.0000   0.2617
  24.300   1.0712   0.19905   0.19767  -0.0551  0.0007  1.0000  -13.4603   0.0000   0.2624
  24.400   1.0686   0.20101   0.19965  -0.0566  0.0007  1.0000  -13.3903   0.0000   0.2638
  24.500   1.0682   0.20244   0.20109  -0.0577  0.0007  1.0000  -13.3893   0.0000   0.2646
  24.600   1.0683   0.20376   0.20243  -0.0587  0.0007  1.0000  -13.4020   0.0000   0.2654
  24.700   1.0685   0.20506   0.20374  -0.0597  0.0007  1.0000  -13.4163   0.0000   0.2661
  24.800   1.0686   0.20638   0.20507  -0.0607  0.0006  1.0000  -13.4274   0.0000   0.2668
  24.900   1.0686   0.20773   0.20644  -0.0618  0.0006  1.0000  -13.4313   0.0000   0.2676
  25.000   1.0665   0.20957   0.20830  -0.0632  0.0006  1.0000  -13.3662   0.0000   0.2689


