xflr5 v6.47

 Calculated polar for: Wing2

 1 1 Reynolds number fixed          Mach number fixed         

 xtrf =   1.000 (top)        1.000 (bottom)
 Mach =   0.000     Re =     4.000 e 6     Ncrit =   9.000

  alpha     CL        CD       CDp       Cm    Top Xtr Bot Xtr   Cpmin    Chinge    XCp    
 ------- -------- --------- --------- -------- ------- ------- -------- --------- ---------
 -21.100  -0.8487   0.18683   0.18578   0.0483  1.0000  0.0025  -10.0305   0.0000   0.2826
 -21.000  -0.8502   0.18469   0.18362   0.0468  1.0000  0.0025  -10.1537   0.0000   0.2809
 -20.900  -0.8518   0.18264   0.18156   0.0455  1.0000  0.0026  -10.2639   0.0000   0.2793
 -20.800  -0.8569   0.17973   0.17864   0.0437  1.0000  0.0026  -10.5099   0.0000   0.2768
 -20.700  -0.8601   0.17737   0.17626   0.0422  1.0000  0.0026  -10.6661   0.0000   0.2749
 -20.600  -0.8624   0.17527   0.17415   0.0409  1.0000  0.0026  -10.7805   0.0000   0.2733
 -20.500  -0.8686   0.17224   0.17110   0.0390  1.0000  0.0026  -11.0358   0.0000   0.2708
 -20.400  -0.8727   0.16975   0.16859   0.0375  1.0000  0.0027  -11.2016   0.0000   0.2688
 -20.300  -0.8763   0.16743   0.16625   0.0360  1.0000  0.0027  -11.3390   0.0000   0.2670
 -20.200  -0.8852   0.16389   0.16269   0.0338  1.0000  0.0027  -11.6553   0.0000   0.2641
 -20.100  -0.8903   0.16127   0.16006   0.0321  1.0000  0.0027  -11.8281   0.0000   0.2620
 -20.000  -0.9014   0.15736   0.15612   0.0297  1.0000  0.0027  -12.1874   0.0000   0.2587
 -19.900  -0.9086   0.15435   0.15308   0.0277  1.0000  0.0027  -12.4084   0.0000   0.2564
 -19.800  -0.9234   0.14975   0.14844   0.0248  1.0000  0.0027  -12.8508   0.0000   0.2526
 -19.700  -0.9417   0.14454   0.14318   0.0214  1.0000  0.0027  -13.3691   0.0000   0.2484
 -19.600  -0.9648   0.13843   0.13701   0.0173  1.0000  0.0026  -13.9986   0.0000   0.2436
 -19.500  -1.0056   0.12900   0.12747   0.0110  1.0000  0.0026  -15.0652   0.0000   0.2363
 -19.400  -1.0532   0.11855   0.11691   0.0039  1.0000  0.0024  -16.2319   0.0000   0.2290
 -19.300  -1.0939   0.10959   0.10785  -0.0021  1.0000  0.0023  -17.1647   0.0000   0.2233
 -19.200  -1.1250   0.10242   0.10060  -0.0068  1.0000  0.0022  -17.8340   0.0000   0.2193
 -18.900  -1.2626   0.07350   0.07130  -0.0257  1.0000  0.0021  -20.6660   0.0000   0.2053
 -18.800  -1.2955   0.06675   0.06443  -0.0301  1.0000  0.0021  -21.2661   0.0000   0.2026
 -18.700  -1.3178   0.06198   0.05958  -0.0331  1.0000  0.0021  -21.6293   0.0000   0.2010
 -18.600  -1.3353   0.05811   0.05564  -0.0354  1.0000  0.0021  -21.8846   0.0000   0.1998
 -18.500  -1.3499   0.05482   0.05228  -0.0373  1.0000  0.0021  -22.0729   0.0000   0.1989
 -18.400  -1.3623   0.05194   0.04935  -0.0389  1.0000  0.0021  -22.2134   0.0000   0.1982
 -18.300  -1.3732   0.04938   0.04674  -0.0402  1.0000  0.0021  -22.3184   0.0000   0.1978
 -18.200  -1.3828   0.04708   0.04438  -0.0413  1.0000  0.0021  -22.3946   0.0000   0.1974
 -18.100  -1.3914   0.04500   0.04225  -0.0421  1.0000  0.0021  -22.4463   0.0000   0.1972
 -18.000  -1.3991   0.04309   0.04030  -0.0428  1.0000  0.0021  -22.4798   0.0000   0.1972
 -17.900  -1.4063   0.04135   0.03851  -0.0433  1.0000  0.0021  -22.4982   0.0000   0.1972
 -17.800  -1.4129   0.03975   0.03687  -0.0436  1.0000  0.0021  -22.5031   0.0000   0.1973
 -17.700  -1.4191   0.03830   0.03538  -0.0438  1.0000  0.0021  -22.4959   0.0000   0.1976
 -17.600  -1.4247   0.03697   0.03401  -0.0438  1.0000  0.0021  -22.4760   0.0000   0.1979
 -17.500  -1.4299   0.03576   0.03276  -0.0436  1.0000  0.0021  -22.4473   0.0000   0.1984
 -17.400  -1.4347   0.03464   0.03161  -0.0433  1.0000  0.0021  -22.4093   0.0000   0.1989
 -17.300  -1.4391   0.03360   0.03053  -0.0429  1.0000  0.0021  -22.3621   0.0000   0.1994
 -17.200  -1.4431   0.03265   0.02955  -0.0424  1.0000  0.0021  -22.3062   0.0000   0.2001
 -17.100  -1.4468   0.03176   0.02863  -0.0418  1.0000  0.0021  -22.2433   0.0000   0.2008
 -17.000  -1.4504   0.03092   0.02776  -0.0411  1.0000  0.0021  -22.1775   0.0000   0.2015
 -16.900  -1.4535   0.03016   0.02696  -0.0403  1.0000  0.0021  -22.1026   0.0000   0.2023
 -16.800  -1.4561   0.02945   0.02622  -0.0395  1.0000  0.0021  -22.0193   0.0000   0.2031
 -16.700  -1.4590   0.02877   0.02551  -0.0385  1.0000  0.0021  -21.9390   0.0000   0.2040
 -16.600  -1.4608   0.02817   0.02488  -0.0376  1.0000  0.0021  -21.8427   0.0000   0.2049
 -16.500  -1.4633   0.02757   0.02425  -0.0365  1.0000  0.0021  -21.7539   0.0000   0.2058
 -16.400  -1.4646   0.02703   0.02369  -0.0355  1.0000  0.0021  -21.6470   0.0000   0.2067
 -16.300  -1.4665   0.02650   0.02313  -0.0343  1.0000  0.0021  -21.5486   0.0000   0.2077
 -16.200  -1.4675   0.02602   0.02262  -0.0331  1.0000  0.0021  -21.4367   0.0000   0.2087
 -16.100  -1.4684   0.02557   0.02215  -0.0319  1.0000  0.0021  -21.3228   0.0000   0.2097
 -16.000  -1.4699   0.02513   0.02168  -0.0306  1.0000  0.0021  -21.2157   0.0000   0.2108
 -15.900  -1.4699   0.02474   0.02127  -0.0294  1.0000  0.0021  -21.0886   0.0000   0.2118
 -15.800  -1.4736   0.02422   0.02071  -0.0277  1.0000  0.0021  -21.0203   0.0000   0.2132
 -15.700  -1.4773   0.02373   0.02017  -0.0260  1.0000  0.0022  -20.9492   0.0000   0.2146
 -15.600  -1.4794   0.02328   0.01968  -0.0243  1.0000  0.0022  -20.8575   0.0000   0.2159
 -15.500  -1.4820   0.02286   0.01922  -0.0225  1.0000  0.0022  -20.7696   0.0000   0.2173
 -15.400  -1.4847   0.02247   0.01880  -0.0206  1.0000  0.0022  -20.6802   0.0000   0.2187
 -15.300  -1.4852   0.02211   0.01840  -0.0190  1.0000  0.0023  -20.5634   0.0000   0.2200
 -15.200  -1.4856   0.02178   0.01804  -0.0173  1.0000  0.0023  -20.4437   0.0000   0.2213
 -15.100  -1.4864   0.02148   0.01771  -0.0155  1.0000  0.0023  -20.3279   0.0000   0.2226
 -15.000  -1.4883   0.02121   0.01742  -0.0134  1.0000  0.0024  -20.2253   0.0000   0.2242
 -14.900  -1.4916   0.02099   0.01716  -0.0109  1.0000  0.0024  -20.1384   0.0000   0.2260
 -14.800  -1.4907   0.02071   0.01686  -0.0093  1.0000  0.0024  -19.9999   0.0000   0.2272
 -14.700  -1.4871   0.02042   0.01655  -0.0082  1.0000  0.0024  -19.8281   0.0000   0.2281
 -14.600  -1.4830   0.02014   0.01624  -0.0072  1.0000  0.0025  -19.6491   0.0000   0.2289
 -14.500  -1.4784   0.01986   0.01594  -0.0062  1.0000  0.0025  -19.4639   0.0000   0.2297
 -14.400  -1.4733   0.01960   0.01566  -0.0053  1.0000  0.0026  -19.2736   0.0000   0.2305
 -14.300  -1.4679   0.01934   0.01538  -0.0044  1.0000  0.0026  -19.0788   0.0000   0.2312
 -14.200  -1.4621   0.01909   0.01511  -0.0036  1.0000  0.0026  -18.8799   0.0000   0.2319
 -14.100  -1.4560   0.01885   0.01486  -0.0028  1.0000  0.0027  -18.6781   0.0000   0.2326
 -14.000  -1.4497   0.01861   0.01460  -0.0021  1.0000  0.0027  -18.4739   0.0000   0.2333
 -13.900  -1.4431   0.01837   0.01435  -0.0014  1.0000  0.0027  -18.2676   0.0000   0.2339
 -13.800  -1.4364   0.01815   0.01411  -0.0007  1.0000  0.0028  -18.0596   0.0000   0.2345
 -13.700  -1.4294   0.01792   0.01387  -0.0001  1.0000  0.0028  -17.8502   0.0000   0.2351
 -13.600  -1.4223   0.01771   0.01364   0.0005  1.0000  0.0028  -17.6397   0.0000   0.2357
 -13.500  -1.4149   0.01749   0.01341   0.0011  1.0000  0.0029  -17.4281   0.0000   0.2363
 -13.400  -1.4075   0.01728   0.01319   0.0017  1.0000  0.0029  -17.2158   0.0000   0.2369
 -13.300  -1.3999   0.01707   0.01297   0.0022  1.0000  0.0029  -17.0029   0.0000   0.2374
 -13.200  -1.3921   0.01687   0.01275   0.0028  1.0000  0.0029  -16.7895   0.0000   0.2380
 -13.100  -1.3842   0.01667   0.01254   0.0033  1.0000  0.0030  -16.5758   0.0000   0.2385
 -13.000  -1.3762   0.01647   0.01233   0.0038  1.0000  0.0030  -16.3617   0.0000   0.2390
 -12.900  -1.3681   0.01628   0.01213   0.0043  1.0000  0.0030  -16.1473   0.0000   0.2395
 -12.800  -1.3598   0.01610   0.01192   0.0048  1.0000  0.0031  -15.9328   0.0000   0.2401
 -12.700  -1.3515   0.01591   0.01173   0.0052  1.0000  0.0031  -15.7185   0.0000   0.2406
 -12.600  -1.3430   0.01573   0.01153   0.0057  1.0000  0.0031  -15.5042   0.0000   0.2411
 -12.500  -1.3345   0.01555   0.01134   0.0061  1.0000  0.0031  -15.2902   0.0000   0.2416
 -12.400  -1.3259   0.01538   0.01115   0.0065  1.0000  0.0032  -15.0764   0.0000   0.2421
 -12.300  -1.3172   0.01521   0.01097   0.0069  1.0000  0.0032  -14.8630   0.0000   0.2426
 -12.200  -1.3083   0.01504   0.01079   0.0073  1.0000  0.0032  -14.6498   0.0000   0.2430
 -12.100  -1.2995   0.01487   0.01061   0.0077  1.0000  0.0032  -14.4372   0.0000   0.2435
 -12.000  -1.2905   0.01471   0.01044   0.0081  1.0000  0.0033  -14.2249   0.0000   0.2440
 -11.900  -1.2815   0.01455   0.01027   0.0085  1.0000  0.0033  -14.0132   0.0000   0.2445
 -11.800  -1.2723   0.01439   0.01011   0.0088  1.0000  0.0033  -13.8021   0.0000   0.2449
 -11.700  -1.2632   0.01424   0.00994   0.0092  1.0000  0.0033  -13.5915   0.0000   0.2454
 -11.600  -1.2539   0.01409   0.00978   0.0095  1.0000  0.0033  -13.3816   0.0000   0.2459
 -11.500  -1.2446   0.01394   0.00963   0.0098  1.0000  0.0033  -13.1725   0.0000   0.2463
 -11.400  -1.2352   0.01379   0.00947   0.0102  1.0000  0.0033  -12.9641   0.0000   0.2468
 -11.300  -1.2258   0.01365   0.00932   0.0105  1.0000  0.0034  -12.7566   0.0000   0.2472
 -11.200  -1.2164   0.01349   0.00915   0.0108  1.0000  0.0034  -12.5526   0.0000   0.2477
 -11.100  -1.2077   0.01326   0.00889   0.0112  1.0000  0.0035  -12.3645   0.0000   0.2483
 -11.000  -1.1987   0.01305   0.00866   0.0116  1.0000  0.0036  -12.1730   0.0000   0.2488
 -10.900  -1.1896   0.01285   0.00845   0.0120  1.0000  0.0037  -11.9792   0.0000   0.2493
 -10.800  -1.1802   0.01268   0.00826   0.0123  1.0000  0.0038  -11.7839   0.0000   0.2498
 -10.700  -1.1708   0.01251   0.00809   0.0126  1.0000  0.0039  -11.5875   0.0000   0.2503
 -10.600  -1.1612   0.01235   0.00793   0.0129  1.0000  0.0040  -11.3907   0.0000   0.2508
 -10.500  -1.1515   0.01220   0.00777   0.0132  1.0000  0.0041  -11.1941   0.0000   0.2512
 -10.400  -1.1418   0.01206   0.00762   0.0135  1.0000  0.0042  -10.9980   0.0000   0.2517
 -10.300  -1.1320   0.01192   0.00748   0.0138  1.0000  0.0042  -10.8025   0.0000   0.2522
 -10.200  -1.1222   0.01178   0.00734   0.0140  1.0000  0.0043  -10.6080   0.0000   0.2526
 -10.100  -1.1123   0.01165   0.00720   0.0143  1.0000  0.0044  -10.4144   0.0000   0.2531
 -10.000  -1.1023   0.01152   0.00707   0.0146  1.0000  0.0045  -10.2219   0.0000   0.2536
  -9.900  -1.0923   0.01140   0.00694   0.0148  1.0000  0.0046  -10.0306   0.0000   0.2540
  -9.800  -1.0823   0.01128   0.00681   0.0150  1.0000  0.0046  -9.8403   0.0000   0.2545
  -9.700  -1.0722   0.01116   0.00669   0.0153  1.0000  0.0047  -9.6511   0.0000   0.2549
  -9.600  -1.0620   0.01104   0.00657   0.0155  1.0000  0.0047  -9.4719   0.0000   0.2554
  -9.500  -1.0518   0.01093   0.00645   0.0157  1.0000  0.0048  -9.2956   0.0000   0.2559
  -9.400  -1.0416   0.01082   0.00634   0.0159  1.0000  0.0048  -9.1201   0.0000   0.2563
  -9.300  -1.0313   0.01072   0.00623   0.0161  1.0000  0.0049  -8.9457   0.0000   0.2568
  -9.200  -1.0205   0.01061   0.00612   0.0162  0.9922  0.0049  -8.7680   0.0000   0.2572
  -9.100  -1.0113   0.01097   0.00599   0.0166  0.7717  0.0049  -8.6048   0.0000   0.2579
  -9.000  -1.0015   0.01091   0.00584   0.0169  0.7382  0.0050  -8.4425   0.0000   0.2584
  -8.900  -0.9916   0.01080   0.00567   0.0172  0.7190  0.0053  -8.2828   0.0000   0.2590
  -8.800  -0.9816   0.01069   0.00552   0.0174  0.7061  0.0055  -8.1207   0.0000   0.2595
  -8.700  -0.9714   0.01060   0.00540   0.0176  0.6954  0.0057  -7.9575   0.0000   0.2600
  -8.600  -0.9611   0.01050   0.00528   0.0178  0.6874  0.0058  -7.7941   0.0000   0.2605
  -8.400  -0.9403   0.01031   0.00506   0.0182  0.6741  0.0062  -7.4696   0.0000   0.2615
  -8.300  -0.9299   0.01022   0.00495   0.0184  0.6682  0.0063  -7.3087   0.0000   0.2621
  -8.200  -0.9194   0.01014   0.00485   0.0186  0.6625  0.0065  -7.1488   0.0000   0.2626
  -8.100  -0.9088   0.01006   0.00476   0.0187  0.6584  0.0066  -6.9895   0.0000   0.2631
  -8.000  -0.8982   0.00998   0.00467   0.0189  0.6538  0.0067  -6.8313   0.0000   0.2636
  -7.900  -0.8875   0.00991   0.00458   0.0190  0.6490  0.0068  -6.6742   0.0000   0.2641
  -7.800  -0.8768   0.00984   0.00450   0.0192  0.6452  0.0068  -6.5179   0.0000   0.2646
  -7.700  -0.8664   0.00973   0.00437   0.0193  0.6415  0.0072  -6.3698   0.0000   0.2652
  -7.600  -0.8559   0.00962   0.00425   0.0195  0.6375  0.0076  -6.2211   0.0000   0.2658
  -7.500  -0.8453   0.00953   0.00415   0.0197  0.6332  0.0080  -6.0720   0.0000   0.2663
  -7.400  -0.8347   0.00944   0.00406   0.0198  0.6300  0.0083  -5.9308   0.0000   0.2669
  -7.300  -0.8240   0.00936   0.00397   0.0200  0.6265  0.0085  -5.7931   0.0000   0.2675
  -7.200  -0.8132   0.00929   0.00389   0.0201  0.6227  0.0088  -5.6564   0.0000   0.2681
  -7.000  -0.7916   0.00916   0.00373   0.0204  0.6155  0.0091  -5.3856   0.0000   0.2692
  -6.900  -0.7808   0.00907   0.00363   0.0205  0.6119  0.0095  -5.2550   0.0000   0.2699
  -6.800  -0.7702   0.00898   0.00353   0.0207  0.6079  0.0101  -5.1261   0.0000   0.2705
  -6.700  -0.7594   0.00890   0.00344   0.0208  0.6040  0.0106  -4.9969   0.0000   0.2711
  -6.600  -0.7486   0.00882   0.00336   0.0209  0.6007  0.0110  -4.8680   0.0000   0.2718
  -6.500  -0.7377   0.00875   0.00329   0.0210  0.5966  0.0114  -4.7401   0.0000   0.2724
  -6.400  -0.7268   0.00869   0.00322   0.0211  0.5923  0.0117  -4.6129   0.0000   0.2731
  -6.300  -0.7159   0.00862   0.00314   0.0213  0.5887  0.0122  -4.4884   0.0000   0.2738
  -6.200  -0.7051   0.00854   0.00305   0.0214  0.5844  0.0131  -4.3660   0.0000   0.2745
  -6.100  -0.6943   0.00847   0.00297   0.0215  0.5796  0.0138  -4.2440   0.0000   0.2752
  -6.000  -0.6834   0.00840   0.00290   0.0216  0.5755  0.0143  -4.1228   0.0000   0.2760
  -5.900  -0.6724   0.00835   0.00283   0.0217  0.5711  0.0147  -4.0022   0.0000   0.2767
  -5.800  -0.6615   0.00828   0.00275   0.0218  0.5659  0.0157  -3.8845   0.0000   0.2775
  -5.700  -0.6506   0.00821   0.00268   0.0219  0.5615  0.0167  -3.7736   0.0000   0.2783
  -5.600  -0.6396   0.00814   0.00261   0.0220  0.5564  0.0176  -3.6668   0.0000   0.2791
  -5.400  -0.6176   0.00803   0.00248   0.0222  0.5466  0.0196  -3.4567   0.0000   0.2808
  -5.300  -0.6067   0.00796   0.00241   0.0223  0.5411  0.0209  -3.3535   0.0000   0.2817
  -5.200  -0.5957   0.00791   0.00235   0.0224  0.5358  0.0219  -3.2509   0.0000   0.2826
  -5.100  -0.5847   0.00785   0.00228   0.0225  0.5307  0.0238  -3.1501   0.0000   0.2835
  -5.000  -0.5737   0.00779   0.00222   0.0226  0.5249  0.0254  -3.0502   0.0000   0.2845
  -4.900  -0.5626   0.00774   0.00216   0.0227  0.5201  0.0266  -2.9509   0.0000   0.2855
  -4.800  -0.5517   0.00768   0.00209   0.0228  0.5144  0.0289  -2.8536   0.0000   0.2865
  -4.700  -0.5406   0.00763   0.00204   0.0229  0.5087  0.0306  -2.7569   0.0000   0.2876
  -4.600  -0.5295   0.00757   0.00198   0.0230  0.5036  0.0328  -2.6614   0.0000   0.2887
  -4.500  -0.5185   0.00752   0.00192   0.0230  0.4975  0.0352  -2.5673   0.0000   0.2898
  -4.400  -0.5074   0.00747   0.00187   0.0231  0.4925  0.0377  -2.4741   0.0000   0.2910
  -4.300  -0.4964   0.00741   0.00181   0.0232  0.4865  0.0409  -2.3824   0.0000   0.2922
  -4.200  -0.4853   0.00736   0.00176   0.0233  0.4809  0.0438  -2.2988   0.0000   0.2935
  -4.100  -0.4743   0.00730   0.00171   0.0234  0.4754  0.0470  -2.2167   0.0000   0.2949
  -4.000  -0.4632   0.00726   0.00166   0.0234  0.4692  0.0501  -2.1355   0.0000   0.2963
  -3.900  -0.4521   0.00721   0.00161   0.0235  0.4642  0.0537  -2.0553   0.0000   0.2977
  -3.800  -0.4410   0.00716   0.00157   0.0236  0.4579  0.0577  -1.9762   0.0000   0.2993
  -3.700  -0.4299   0.00711   0.00152   0.0236  0.4525  0.0617  -1.8980   0.0000   0.3008
  -3.600  -0.4188   0.00706   0.00148   0.0237  0.4468  0.0663  -1.8223   0.0000   0.3025
  -3.500  -0.4076   0.00703   0.00144   0.0238  0.4408  0.0696  -1.7526   0.0000   0.3043
  -3.400  -0.3965   0.00698   0.00139   0.0238  0.4358  0.0746  -1.6840   0.0000   0.3061
  -3.300  -0.3853   0.00695   0.00136   0.0239  0.4294  0.0783  -1.6160   0.0000   0.3081
  -3.200  -0.3741   0.00690   0.00132   0.0240  0.4242  0.0838  -1.5491   0.0000   0.3101
  -3.100  -0.3629   0.00687   0.00129   0.0240  0.4182  0.0871  -1.4826   0.0000   0.3123
  -3.000  -0.3518   0.00683   0.00125   0.0241  0.4126  0.0929  -1.4232   0.0000   0.3146
  -2.900  -0.3405   0.00680   0.00122   0.0241  0.4077  0.0971  -1.3640   0.0000   0.3171
  -2.800  -0.3294   0.00676   0.00118   0.0242  0.4016  0.1032  -1.3060   0.0000   0.3197
  -2.700  -0.3181   0.00673   0.00115   0.0242  0.3966  0.1082  -1.2495   0.0000   0.3225
  -2.600  -0.3070   0.00668   0.00112   0.0243  0.3908  0.1150  -1.1978   0.0000   0.3255
  -2.500  -0.2958   0.00665   0.00109   0.0243  0.3851  0.1216  -1.1466   0.0000   0.3287
  -2.300  -0.2734   0.00657   0.00103   0.0244  0.3748  0.1367  -1.0511   0.0000   0.3359
  -2.200  -0.2623   0.00652   0.00100   0.0245  0.3703  0.1455  -1.0059   0.0000   0.3399
  -2.100  -0.2511   0.00647   0.00097   0.0245  0.3653  0.1550  -0.9636   0.0000   0.3443
  -1.900  -0.2288   0.00638   0.00092   0.0246  0.3551  0.1763  -0.8841   0.0000   0.3544
  -1.800  -0.2177   0.00633   0.00089   0.0247  0.3499  0.1885  -0.8477   0.0000   0.3602
  -1.700  -0.2066   0.00628   0.00087   0.0247  0.3449  0.2022  -0.8123   0.0000   0.3666
  -1.600  -0.1955   0.00621   0.00084   0.0248  0.3414  0.2168  -0.7794   0.0000   0.3737
  -1.500  -0.1845   0.00615   0.00081   0.0248  0.3369  0.2323  -0.7473   0.0000   0.3817
  -1.400  -0.1734   0.00609   0.00079   0.0249  0.3317  0.2485  -0.7174   0.0000   0.3907
  -1.300  -0.1623   0.00603   0.00077   0.0249  0.3282  0.2647  -0.6881   0.0000   0.4009
  -1.200  -0.1513   0.00597   0.00075   0.0250  0.3236  0.2816  -0.6609   0.0000   0.4126
  -1.100  -0.1402   0.00592   0.00073   0.0250  0.3184  0.2988  -0.6342   0.0000   0.4261
  -1.000  -0.1291   0.00586   0.00071   0.0251  0.3153  0.3152  -0.6091   0.0000   0.4420
  -0.900  -0.1180   0.00581   0.00070   0.0251  0.3116  0.3307  -0.5845   0.0000   0.4608
  -0.800  -0.1068   0.00577   0.00068   0.0251  0.3073  0.3447  -0.5718   0.0000   0.4837
  -0.700  -0.0956   0.00573   0.00067   0.0252  0.3039  0.3582  -0.5861   0.0000   0.5119
  -0.600  -0.0843   0.00569   0.00066   0.0252  0.3007  0.3709  -0.6005   0.0000   0.5478
  -0.500  -0.0730   0.00567   0.00066   0.0252  0.2966  0.3824  -0.6150   0.0000   0.5947
  -0.400  -0.0618   0.00566   0.00065   0.0253  0.2919  0.3938  -0.6295   0.0000   0.6588
  -0.300  -0.0505   0.00562   0.00065   0.0253  0.2892  0.4054  -0.6442   0.0000   0.7517
  -0.200  -0.0392   0.00560   0.00064   0.0253  0.2856  0.4161  -0.6594   0.0000   0.8981
  -0.100  -0.0279   0.00559   0.00064   0.0253  0.2816  0.4261  -0.6749   0.0000   1.1635
   0.100  -0.0052   0.00555   0.00064   0.0254  0.2759  0.4466  -0.7063   0.0000   5.2066
   0.200   0.0062   0.00553   0.00064   0.0254  0.2730  0.4553  -0.7221   0.0000  -3.8762
   0.300   0.0176   0.00553   0.00064   0.0254  0.2694  0.4638  -0.7380   0.0000  -1.2098
   0.400   0.0289   0.00552   0.00064   0.0254  0.2656  0.4741  -0.7539   0.0000  -0.6407
   0.500   0.0403   0.00550   0.00064   0.0254  0.2633  0.4836  -0.7699   0.0000  -0.3906
   0.600   0.0517   0.00549   0.00064   0.0254  0.2602  0.4922  -0.7860   0.0000  -0.2502
   0.700   0.0630   0.00549   0.00065   0.0254  0.2565  0.5018  -0.8021   0.0000  -0.1614
   0.800   0.0744   0.00548   0.00065   0.0254  0.2527  0.5113  -0.8191   0.0000  -0.0994
   0.900   0.0858   0.00547   0.00066   0.0254  0.2507  0.5212  -0.8363   0.0000  -0.0536
   1.000   0.0971   0.00545   0.00066   0.0254  0.2482  0.5326  -0.8535   0.0000  -0.0188
   1.100   0.1084   0.00544   0.00067   0.0255  0.2453  0.5443  -0.8708   0.0000   0.0086
   1.200   0.1197   0.00542   0.00067   0.0255  0.2419  0.5569  -0.8881   0.0000   0.0308
   1.300   0.1309   0.00540   0.00068   0.0255  0.2395  0.5715  -0.9054   0.0000   0.0491
   1.400   0.1421   0.00535   0.00068   0.0255  0.2377  0.5890  -0.9228   0.0000   0.0643
   1.500   0.1532   0.00529   0.00069   0.0256  0.2355  0.6130  -0.9401   0.0000   0.0770
   1.600   0.1640   0.00522   0.00069   0.0257  0.2328  0.6445  -0.9573   0.0000   0.0876
   1.700   0.1747   0.00514   0.00070   0.0258  0.2295  0.6791  -0.9744   0.0000   0.0967
   1.800   0.1855   0.00507   0.00071   0.0259  0.2271  0.7097  -0.9917   0.0000   0.1048
   1.900   0.1965   0.00502   0.00072   0.0260  0.2252  0.7332  -1.0092   0.0000   0.1122
   2.000   0.2075   0.00498   0.00073   0.0260  0.2228  0.7533  -1.0271   0.0000   0.1188
   2.100   0.2185   0.00495   0.00075   0.0261  0.2200  0.7710  -1.0458   0.0000   0.1248
   2.200   0.2297   0.00495   0.00077   0.0262  0.2166  0.7844  -1.0646   0.0000   0.1303
   2.300   0.2408   0.00493   0.00079   0.0263  0.2146  0.7979  -1.0835   0.0000   0.1353
   2.400   0.2521   0.00493   0.00081   0.0263  0.2131  0.8080  -1.1027   0.0000   0.1400
   2.500   0.2631   0.00491   0.00082   0.0264  0.2112  0.8200  -1.1217   0.0000   0.1441
   2.600   0.2744   0.00492   0.00084   0.0264  0.2090  0.8279  -1.1411   0.0000   0.1481
   2.700   0.2856   0.00493   0.00086   0.0265  0.2064  0.8365  -1.1603   0.0000   0.1517
   2.800   0.2966   0.00493   0.00089   0.0266  0.2035  0.8464  -1.1795   0.0000   0.1548
   2.900   0.3079   0.00494   0.00091   0.0266  0.2023  0.8537  -1.1990   0.0000   0.1579
   3.000   0.3193   0.00495   0.00093   0.0266  0.2009  0.8583  -1.2188   0.0000   0.1609
   3.100   0.3305   0.00496   0.00095   0.0267  0.1992  0.8662  -1.2384   0.0000   0.1635
   3.200   0.3415   0.00496   0.00097   0.0268  0.1972  0.8745  -1.2578   0.0000   0.1658
   3.300   0.3526   0.00498   0.00100   0.0269  0.1948  0.8812  -1.2774   0.0000   0.1680
   3.400   0.3638   0.00501   0.00102   0.0269  0.1921  0.8862  -1.2973   0.0000   0.1702
   3.500   0.3753   0.00503   0.00105   0.0269  0.1907  0.8895  -1.3173   0.0000   0.1724
   3.600   0.3865   0.00504   0.00107   0.0269  0.1896  0.8948  -1.3374   0.0000   0.1744
   3.700   0.3974   0.00505   0.00110   0.0271  0.1882  0.9028  -1.3571   0.0000   0.1759
   3.800   0.4084   0.00506   0.00113   0.0272  0.1864  0.9092  -1.3770   0.0000   0.1774
   3.900   0.4195   0.00509   0.00116   0.0273  0.1843  0.9146  -1.3970   0.0000   0.1790
   4.000   0.4307   0.00512   0.00119   0.0273  0.1817  0.9188  -1.4172   0.0000   0.1805
   4.100   0.4420   0.00516   0.00121   0.0273  0.1794  0.9218  -1.4379   0.0000   0.1821
   4.200   0.4535   0.00518   0.00124   0.0273  0.1785  0.9240  -1.4597   0.0000   0.1836
   4.300   0.4648   0.00520   0.00127   0.0273  0.1772  0.9293  -1.4814   0.0000   0.1849
   4.400   0.4758   0.00522   0.00130   0.0274  0.1757  0.9364  -1.5029   0.0000   0.1860
   4.500   0.4869   0.00525   0.00134   0.0275  0.1741  0.9422  -1.5246   0.0000   0.1871
   4.600   0.4981   0.00529   0.00137   0.0276  0.1723  0.9471  -1.5464   0.0000   0.1882
   4.700   0.5093   0.00533   0.00141   0.0276  0.1700  0.9514  -1.5682   0.0000   0.1893
   4.800   0.5206   0.00536   0.00144   0.0276  0.1681  0.9549  -1.5902   0.0000   0.1904
   4.900   0.5319   0.00539   0.00147   0.0277  0.1675  0.9574  -1.6124   0.0000   0.1914
   5.000   0.5432   0.00542   0.00150   0.0277  0.1666  0.9593  -1.6346   0.0000   0.1923
   5.100   0.5544   0.00545   0.00154   0.0277  0.1655  0.9608  -1.6569   0.0000   0.1932
   5.200   0.5669   0.00549   0.00157   0.0275  0.1641  0.9653  -1.6806   0.0000   0.1947
   5.300   0.5798   0.00553   0.00161   0.0271  0.1625  0.9696  -1.7048   0.0000   0.1964
   5.400   0.5928   0.00558   0.00164   0.0267  0.1607  0.9730  -1.7292   0.0000   0.1980
   5.500   0.6058   0.00563   0.00169   0.0264  0.1578  0.9760  -1.7536   0.0000   0.1995
   5.600   0.6188   0.00567   0.00172   0.0260  0.1562  0.9786  -1.7783   0.0000   0.2009
   5.700   0.6317   0.00571   0.00176   0.0256  0.1545  0.9809  -1.8030   0.0000   0.2023
   5.800   0.6445   0.00576   0.00180   0.0253  0.1526  0.9829  -1.8276   0.0000   0.2035
   5.900   0.6571   0.00582   0.00184   0.0250  0.1499  0.9846  -1.8521   0.0000   0.2047
   6.000   0.6696   0.00589   0.00189   0.0247  0.1462  0.9861  -1.8765   0.0000   0.2057
   6.100   0.6822   0.00593   0.00193   0.0244  0.1450  0.9874  -1.9013   0.0000   0.2068
   6.200   0.6948   0.00597   0.00197   0.0241  0.1432  0.9886  -1.9261   0.0000   0.2078
   6.300   0.7073   0.00603   0.00201   0.0238  0.1411  0.9898  -1.9516   0.0000   0.2087
   6.400   0.7196   0.00611   0.00207   0.0236  0.1380  0.9908  -1.9775   0.0000   0.2095
   6.500   0.7321   0.00616   0.00212   0.0233  0.1353  0.9917  -2.0364   0.0000   0.2104
   6.600   0.7445   0.00621   0.00216   0.0230  0.1340  0.9926  -2.1390   0.0000   0.2112
   6.700   0.7569   0.00627   0.00221   0.0228  0.1317  0.9933  -2.2428   0.0000   0.2119
   6.800   0.7691   0.00636   0.00228   0.0225  0.1277  0.9940  -2.3470   0.0000   0.2126
   6.900   0.7814   0.00643   0.00233   0.0223  0.1245  0.9946  -2.4532   0.0000   0.2133
   7.000   0.7937   0.00650   0.00239   0.0220  0.1215  0.9952  -2.5608   0.0000   0.2140
   7.100   0.8058   0.00662   0.00247   0.0218  0.1162  0.9957  -2.6683   0.0000   0.2146
   7.200   0.8180   0.00670   0.00254   0.0215  0.1123  0.9962  -2.7779   0.0000   0.2153
   7.300   0.8300   0.00685   0.00264   0.0213  0.1049  0.9966  -2.8864   0.0000   0.2158
   7.400   0.8418   0.00704   0.00277   0.0210  0.0952  0.9970  -2.9943   0.0000   0.2164
   7.500   0.8501   0.00799   0.00343   0.0210  0.0452  0.9975  -3.0773   0.0000   0.2166
   7.600   0.8592   0.00880   0.00406   0.0209  0.0076  0.9980  -3.1633   0.0000   0.2168
   7.700   0.8712   0.00896   0.00420   0.0207  0.0047  0.9982  -3.2817   0.0000   0.2174
   7.800   0.8834   0.00908   0.00432   0.0204  0.0034  0.9984  -3.4070   0.0000   0.2179
   7.900   0.8957   0.00920   0.00443   0.0201  0.0029  0.9987  -3.5351   0.0000   0.2184
   8.000   0.9078   0.00933   0.00457   0.0199  0.0023  0.9988  -3.6547   0.0000   0.2189
   8.100   0.9199   0.00948   0.00473   0.0196  0.0021  0.9990  -3.7678   0.0000   0.2193
   8.200   0.9319   0.00958   0.00484   0.0194  0.0020  0.9992  -3.9025   0.0000   0.2197
   8.300   0.9439   0.00968   0.00494   0.0192  0.0020  0.9993  -4.0394   0.0000   0.2201
   8.400   0.9557   0.00979   0.00505   0.0190  0.0020  0.9994  -4.1772   0.0000   0.2204
   8.500   0.9675   0.00990   0.00516   0.0188  0.0020  0.9995  -4.3159   0.0000   0.2207
   8.600   0.9791   0.01001   0.00528   0.0186  0.0020  0.9996  -4.4553   0.0000   0.2210
   8.700   0.9906   0.01012   0.00539   0.0185  0.0019  0.9997  -4.5957   0.0000   0.2212
   8.800   1.0020   0.01024   0.00551   0.0184  0.0019  0.9998  -4.7373   0.0000   0.2215
   8.900   1.0134   0.01036   0.00564   0.0183  0.0019  0.9998  -4.8800   0.0000   0.2217
   9.000   1.0248   0.01048   0.00577   0.0181  0.0019  0.9999  -5.0241   0.0000   0.2218
   9.100   1.0360   0.01061   0.00590   0.0180  0.0019  1.0000  -5.1694   0.0000   0.2220
   9.200   1.0456   0.01073   0.00603   0.0183  0.0018  1.0000  -5.3049   0.0000   0.2218
   9.300   1.0549   0.01085   0.00616   0.0186  0.0018  1.0000  -5.4400   0.0000   0.2215
   9.400   1.0642   0.01098   0.00630   0.0189  0.0018  1.0000  -5.5770   0.0000   0.2213
   9.500   1.0736   0.01111   0.00644   0.0192  0.0018  1.0000  -5.7156   0.0000   0.2210
   9.600   1.0830   0.01125   0.00658   0.0194  0.0018  1.0000  -5.8557   0.0000   0.2208
   9.700   1.0925   0.01138   0.00672   0.0197  0.0017  1.0000  -5.9972   0.0000   0.2206
   9.800   1.1019   0.01152   0.00687   0.0200  0.0017  1.0000  -6.1400   0.0000   0.2204
   9.900   1.1112   0.01167   0.00703   0.0202  0.0017  1.0000  -6.2840   0.0000   0.2202
  10.000   1.1206   0.01181   0.00718   0.0205  0.0017  1.0000  -6.4292   0.0000   0.2199
  10.100   1.1299   0.01196   0.00734   0.0208  0.0017  1.0000  -6.5754   0.0000   0.2197
  10.200   1.1392   0.01211   0.00750   0.0210  0.0017  1.0000  -6.7228   0.0000   0.2195
  10.300   1.1484   0.01227   0.00767   0.0213  0.0016  1.0000  -6.8712   0.0000   0.2193
  10.400   1.1576   0.01243   0.00783   0.0216  0.0016  1.0000  -7.0206   0.0000   0.2190
  10.500   1.1667   0.01259   0.00800   0.0218  0.0016  1.0000  -7.1710   0.0000   0.2188
  10.600   1.1758   0.01275   0.00818   0.0221  0.0016  1.0000  -7.3224   0.0000   0.2185
  10.700   1.1848   0.01292   0.00836   0.0224  0.0016  1.0000  -7.4747   0.0000   0.2183
  10.800   1.1937   0.01308   0.00854   0.0227  0.0016  1.0000  -7.6279   0.0000   0.2180
  10.900   1.2026   0.01326   0.00872   0.0230  0.0015  1.0000  -7.7819   0.0000   0.2178
  11.000   1.2114   0.01343   0.00891   0.0233  0.0015  1.0000  -7.9368   0.0000   0.2175
  11.100   1.2201   0.01361   0.00910   0.0237  0.0015  1.0000  -8.0924   0.0000   0.2172
  11.200   1.2287   0.01379   0.00929   0.0240  0.0015  1.0000  -8.2488   0.0000   0.2169
  11.300   1.2373   0.01397   0.00948   0.0243  0.0015  1.0000  -8.4058   0.0000   0.2167
  11.400   1.2457   0.01416   0.00968   0.0247  0.0015  1.0000  -8.5635   0.0000   0.2164
  11.500   1.2541   0.01435   0.00988   0.0250  0.0015  1.0000  -8.7218   0.0000   0.2160
  11.600   1.2623   0.01454   0.01009   0.0254  0.0014  1.0000  -8.8806   0.0000   0.2157
  11.700   1.2705   0.01473   0.01030   0.0258  0.0014  1.0000  -9.0398   0.0000   0.2154
  11.800   1.2785   0.01493   0.01051   0.0262  0.0014  1.0000  -9.1993   0.0000   0.2151
  11.900   1.2864   0.01513   0.01072   0.0266  0.0014  1.0000  -9.3591   0.0000   0.2147
  12.000   1.2942   0.01534   0.01094   0.0270  0.0014  1.0000  -9.5188   0.0000   0.2143
  12.100   1.3018   0.01555   0.01116   0.0275  0.0014  1.0000  -9.6784   0.0000   0.2140
  12.200   1.3093   0.01576   0.01139   0.0280  0.0013  1.0000  -9.8376   0.0000   0.2136
  12.300   1.3166   0.01598   0.01162   0.0284  0.0013  1.0000  -9.9960   0.0000   0.2132
  12.400   1.3237   0.01621   0.01186   0.0289  0.0013  1.0000  -10.1533   0.0000   0.2127
  12.500   1.3306   0.01644   0.01211   0.0295  0.0013  1.0000  -10.3092   0.0000   0.2123
  12.600   1.3372   0.01668   0.01237   0.0300  0.0013  1.0000  -10.4634   0.0000   0.2118
  12.700   1.3437   0.01693   0.01264   0.0306  0.0012  1.0000  -10.6153   0.0000   0.2113
  12.800   1.3498   0.01719   0.01292   0.0312  0.0012  1.0000  -10.7641   0.0000   0.2108
  12.900   1.3556   0.01747   0.01322   0.0318  0.0012  1.0000  -10.9091   0.0000   0.2103
  13.000   1.3611   0.01777   0.01355   0.0325  0.0012  1.0000  -11.0491   0.0000   0.2097
  13.100   1.3661   0.01811   0.01390   0.0332  0.0012  1.0000  -11.1819   0.0000   0.2092
  13.200   1.3705   0.01849   0.01432   0.0339  0.0011  1.0000  -11.3030   0.0000   0.2085
  13.300   1.3736   0.01899   0.01486   0.0347  0.0011  1.0000  -11.3965   0.0000   0.2079
  13.400   1.3351   0.02172   0.01790   0.0394  0.0009  1.0000  -10.8425   0.0000   0.2034
  13.500   1.3339   0.02215   0.01835   0.0407  0.0009  1.0000  -10.9257   0.0000   0.2023
  13.600   1.3318   0.02270   0.01893   0.0417  0.0009  1.0000  -10.9974   0.0000   0.2013
  13.700   1.3291   0.02345   0.01971   0.0423  0.0009  1.0000  -11.0586   0.0000   0.2007
  13.800   1.3254   0.02452   0.02083   0.0421  0.0009  1.0000  -11.1014   0.0000   0.2005
  13.900   1.3219   0.02589   0.02225   0.0413  0.0009  1.0000  -11.1409   0.0000   0.2008
  14.000   1.3195   0.02728   0.02368   0.0405  0.0009  1.0000  -11.1898   0.0000   0.2012
  14.100   1.3171   0.02868   0.02512   0.0397  0.0009  1.0000  -11.2390   0.0000   0.2015
  14.200   1.3142   0.03013   0.02661   0.0389  0.0009  1.0000  -11.2826   0.0000   0.2018
  14.300   1.3106   0.03167   0.02818   0.0382  0.0009  1.0000  -11.3181   0.0000   0.2020
  14.400   1.3063   0.03329   0.02985   0.0375  0.0009  1.0000  -11.3444   0.0000   0.2023
  14.500   1.3012   0.03504   0.03164   0.0367  0.0009  1.0000  -11.3591   0.0000   0.2026
  14.600   1.2953   0.03689   0.03353   0.0358  0.0009  1.0000  -11.3638   0.0000   0.2029
  14.700   1.2885   0.03886   0.03554   0.0349  0.0009  1.0000  -11.3566   0.0000   0.2032
  14.800   1.2808   0.04095   0.03767   0.0340  0.0009  1.0000  -11.3359   0.0000   0.2035
  14.900   1.2724   0.04315   0.03992   0.0330  0.0009  1.0000  -11.3051   0.0000   0.2039
  15.000   1.2631   0.04549   0.04231   0.0320  0.0009  1.0000  -11.2622   0.0000   0.2043
  15.100   1.2531   0.04796   0.04483   0.0309  0.0009  1.0000  -11.2076   0.0000   0.2048
  15.200   1.2428   0.05048   0.04739   0.0297  0.0009  1.0000  -11.1479   0.0000   0.2053
  15.300   1.2314   0.05317   0.05013   0.0285  0.0009  1.0000  -11.0716   0.0000   0.2059
  15.400   1.2195   0.05592   0.05293   0.0272  0.0009  1.0000  -10.9871   0.0000   0.2065
  15.500   1.2076   0.05872   0.05578   0.0259  0.0009  1.0000  -10.9007   0.0000   0.2071
  15.600   1.1956   0.06156   0.05866   0.0246  0.0009  1.0000  -10.8111   0.0000   0.2078
  15.700   1.1835   0.06445   0.06159   0.0232  0.0009  1.0000  -10.7183   0.0000   0.2086
  15.800   1.1717   0.06733   0.06452   0.0219  0.0009  1.0000  -10.6262   0.0000   0.2094
  15.900   1.1604   0.07021   0.06744   0.0205  0.0009  1.0000  -10.5385   0.0000   0.2102
  16.000   1.1502   0.07298   0.07026   0.0192  0.0009  1.0000  -10.4633   0.0000   0.2110
  16.100   1.1410   0.07563   0.07294   0.0179  0.0009  1.0000  -10.4012   0.0000   0.2118
  16.200   1.1308   0.07849   0.07584   0.0165  0.0009  1.0000  -10.3215   0.0000   0.2127
  16.300   1.1222   0.08111   0.07850   0.0152  0.0009  1.0000  -10.2623   0.0000   0.2136
  16.400   1.1143   0.08365   0.08107   0.0140  0.0009  1.0000  -10.2122   0.0000   0.2144
  16.500   1.1061   0.08628   0.08374   0.0127  0.0009  1.0000  -10.1555   0.0000   0.2153
  16.600   1.0998   0.08863   0.08611   0.0116  0.0009  1.0000  -10.1241   0.0000   0.2161
  16.700   1.0928   0.09111   0.08862   0.0104  0.0009  1.0000  -10.0817   0.0000   0.2169
  16.800   1.0869   0.09342   0.09096   0.0092  0.0009  1.0000  -10.0527   0.0000   0.2177
  16.900   1.0822   0.09553   0.09309   0.0082  0.0009  1.0000  -10.0420   0.0000   0.2185
  17.000   1.0756   0.09800   0.09559   0.0070  0.0009  1.0000  -9.9993   0.0000   0.2194
  17.100   1.0718   0.10002   0.09762   0.0060  0.0009  1.0000  -9.9976   0.0000   0.2201
  17.200   1.0677   0.10208   0.09972   0.0050  0.0009  1.0000  -9.9909   0.0000   0.2208
  17.300   1.0625   0.10436   0.10201   0.0039  0.0009  1.0000  -9.9657   0.0000   0.2217
  17.400   1.0595   0.10625   0.10392   0.0030  0.0009  1.0000  -9.9722   0.0000   0.2224
  17.500   1.0569   0.10805   0.10575   0.0021  0.0009  1.0000  -9.9859   0.0000   0.2231
  17.600   1.0522   0.11028   0.10800   0.0009  0.0009  1.0000  -9.9626   0.0000   0.2240
  17.700   1.0495   0.11215   0.10989  -0.0000  0.0009  1.0000  -9.9708   0.0000   0.2247
  17.800   1.0475   0.11388   0.11164  -0.0009  0.0009  1.0000  -9.9902   0.0000   0.2253
  17.900   1.0457   0.11559   0.11336  -0.0017  0.0009  1.0000  -10.0118   0.0000   0.2260
  18.000   1.0420   0.11768   0.11547  -0.0028  0.0009  1.0000  -9.9985   0.0000   0.2269
  18.100   1.0398   0.11945   0.11726  -0.0038  0.0009  1.0000  -10.0120   0.0000   0.2276
  18.200   1.0385   0.12107   0.11889  -0.0046  0.0009  1.0000  -10.0390   0.0000   0.2282
  18.300   1.0374   0.12266   0.12050  -0.0054  0.0009  1.0000  -10.0681   0.0000   0.2288
  18.400   1.0353   0.12445   0.12231  -0.0064  0.0009  1.0000  -10.0785   0.0000   0.2296
  18.500   1.0329   0.12630   0.12418  -0.0074  0.0009  1.0000  -10.0822   0.0000   0.2304
  18.600   1.0318   0.12791   0.12580  -0.0083  0.0009  1.0000  -10.1082   0.0000   0.2311
  18.700   1.0311   0.12944   0.12735  -0.0091  0.0009  1.0000  -10.1403   0.0000   0.2317
  18.800   1.0305   0.13095   0.12887  -0.0099  0.0009  1.0000  -10.1739   0.0000   0.2323
  18.900   1.0297   0.13249   0.13043  -0.0108  0.0009  1.0000  -10.2031   0.0000   0.2330
  19.000   1.0274   0.13434   0.13230  -0.0118  0.0009  1.0000  -10.2027   0.0000   0.2339
  19.100   1.0264   0.13593   0.13390  -0.0127  0.0009  1.0000  -10.2257   0.0000   0.2346
  19.200   1.0259   0.13741   0.13540  -0.0136  0.0009  1.0000  -10.2587   0.0000   0.2352
  19.300   1.0258   0.13884   0.13684  -0.0144  0.0009  1.0000  -10.2967   0.0000   0.2358
  19.400   1.0257   0.14026   0.13827  -0.0152  0.0009  1.0000  -10.3347   0.0000   0.2364
  19.500   1.0253   0.14174   0.13977  -0.0160  0.0009  1.0000  -10.3660   0.0000   0.2370
  19.600   1.0234   0.14352   0.14157  -0.0171  0.0009  1.0000  -10.3670   0.0000   0.2379
  19.700   1.0227   0.14506   0.14312  -0.0180  0.0009  1.0000  -10.3917   0.0000   0.2387
  19.800   1.0227   0.14647   0.14454  -0.0188  0.0009  1.0000  -10.4268   0.0000   0.2393
  19.900   1.0227   0.14785   0.14594  -0.0197  0.0009  1.0000  -10.4645   0.0000   0.2399
  20.000   1.0228   0.14922   0.14732  -0.0205  0.0009  1.0000  -10.5025   0.0000   0.2405
  20.100   1.0229   0.15060   0.14871  -0.0213  0.0009  1.0000  -10.5391   0.0000   0.2411
  20.200   1.0221   0.15216   0.15029  -0.0223  0.0009  1.0000  -10.5567   0.0000   0.2419
  20.300   1.0210   0.15380   0.15195  -0.0233  0.0009  1.0000  -10.5649   0.0000   0.2427
  20.400   1.0208   0.15525   0.15341  -0.0242  0.0009  1.0000  -10.5926   0.0000   0.2434
  20.500   1.0209   0.15662   0.15479  -0.0250  0.0009  1.0000  -10.6269   0.0000   0.2441
  20.600   1.0212   0.15796   0.15615  -0.0259  0.0009  1.0000  -10.6630   0.0000   0.2447
  20.700   1.0215   0.15930   0.15751  -0.0267  0.0009  1.0000  -10.6987   0.0000   0.2453
  20.800   1.0217   0.16065   0.15887  -0.0276  0.0009  1.0000  -10.7325   0.0000   0.2459
  20.900   1.0215   0.16211   0.16034  -0.0285  0.0009  1.0000  -10.7555   0.0000   0.2467
  21.000   1.0202   0.16377   0.16202  -0.0296  0.0009  1.0000  -10.7538   0.0000   0.2476
  21.100   1.0200   0.16523   0.16349  -0.0306  0.0009  1.0000  -10.7738   0.0000   0.2483
  21.200   1.0201   0.16660   0.16488  -0.0315  0.0009  1.0000  -10.8018   0.0000   0.2490
  21.300   1.0204   0.16794   0.16623  -0.0323  0.0009  1.0000  -10.8319   0.0000   0.2497
  21.400   1.0206   0.16928   0.16758  -0.0332  0.0009  1.0000  -10.8617   0.0000   0.2503
  21.500   1.0210   0.17061   0.16893  -0.0341  0.0009  1.0000  -10.8912   0.0000   0.2510
  21.600   1.0211   0.17198   0.17031  -0.0350  0.0009  1.0000  -10.9159   0.0000   0.2517
  21.700   1.0198   0.17369   0.17204  -0.0362  0.0009  1.0000  -10.9025   0.0000   0.2527
  21.800   1.0193   0.17521   0.17358  -0.0372  0.0009  1.0000  -10.9081   0.0000   0.2536
  21.900   1.0193   0.17661   0.17500  -0.0382  0.0009  1.0000  -10.9255   0.0000   0.2543
  22.000   1.0194   0.17798   0.17638  -0.0391  0.0009  1.0000  -10.9454   0.0000   0.2550
  22.100   1.0196   0.17934   0.17775  -0.0400  0.0009  1.0000  -10.9658   0.0000   0.2558
  22.200   1.0198   0.18070   0.17913  -0.0410  0.0009  1.0000  -10.9841   0.0000   0.2565
  22.300   1.0197   0.18211   0.18056  -0.0420  0.0009  1.0000  -10.9964   0.0000   0.2572
  22.400   1.0181   0.18390   0.18237  -0.0432  0.0009  1.0000  -10.9639   0.0000   0.2584
  22.500   1.0174   0.18548   0.18397  -0.0443  0.0009  1.0000  -10.9545   0.0000   0.2593
  22.600   1.0172   0.18694   0.18544  -0.0453  0.0009  1.0000  -10.9568   0.0000   0.2602
  22.700   1.0171   0.18837   0.18689  -0.0463  0.0009  1.0000  -10.9614   0.0000   0.2610
  22.800   1.0170   0.18980   0.18834  -0.0473  0.0009  1.0000  -10.9644   0.0000   0.2618
  22.900   1.0168   0.19127   0.18983  -0.0484  0.0009  1.0000  -10.9613   0.0000   0.2627
  23.000   1.0150   0.19312   0.19170  -0.0497  0.0009  1.0000  -10.9110   0.0000   0.2639
  23.100   1.0137   0.19486   0.19346  -0.0509  0.0009  1.0000  -10.8722   0.0000   0.2650
  23.200   1.0131   0.19645   0.19507  -0.0521  0.0009  1.0000  -10.8500   0.0000   0.2660
  23.300   1.0126   0.19800   0.19664  -0.0532  0.0009  1.0000  -10.8293   0.0000   0.2670
  23.400   1.0119   0.19960   0.19826  -0.0543  0.0009  1.0000  -10.8014   0.0000   0.2680
  23.500   1.0096   0.20163   0.20032  -0.0557  0.0009  1.0000  -10.7179   0.0000   0.2694
  23.600   1.0075   0.20360   0.20231  -0.0571  0.0009  1.0000  -10.6392   0.0000   0.2708
  23.700   1.0062   0.20540   0.20413  -0.0584  0.0009  1.0000  -10.5785   0.0000   0.2720
  23.800   1.0047   0.20723   0.20599  -0.0597  0.0009  1.0000  -10.5105   0.0000   0.2733
  23.900   1.0008   0.20975   0.20854  -0.0614  0.0009  1.0000  -10.3478   0.0000   0.2752
  24.000   0.9979   0.21201   0.21084  -0.0629  0.0009  1.0000  -10.2144   0.0000   0.2769
  24.100   0.9946   0.21444   0.21329  -0.0646  0.0009  1.0000  -10.0532   0.0000   0.2788
  24.200   0.9867   0.21825   0.21716  -0.0670  0.0009  1.0000  -9.6850   0.0000   0.2820


