xflr5 v6.47

 Calculated polar for: Wing2

 1 1 Reynolds number fixed          Mach number fixed         

 xtrf =   1.000 (top)        1.000 (bottom)
 Mach =   0.000     Re =     8.000 e 6     Ncrit =   9.000

  alpha     CL        CD       CDp       Cm    Top Xtr Bot Xtr   Cpmin    Chinge    XCp    
 ------- -------- --------- --------- -------- ------- ------- -------- --------- ---------
 -23.900  -0.8670   0.23201   0.23133   0.0781  0.9995  0.0012  -8.2252   0.0000   0.3136
 -23.800  -0.8660   0.23060   0.22992   0.0772  0.9995  0.0012  -8.2937   0.0000   0.3128
 -23.700  -0.8760   0.22552   0.22481   0.0750  0.9995  0.0014  -9.1383   0.0000   0.3086
 -23.600  -0.8754   0.22401   0.22329   0.0741  0.9995  0.0015  -9.2192   0.0000   0.3077
 -23.500  -0.8743   0.22270   0.22197   0.0732  0.9995  0.0015  -9.2581   0.0000   0.3069
 -23.400  -0.8732   0.22138   0.22065   0.0723  0.9995  0.0015  -9.2971   0.0000   0.3061
 -22.800  -0.8841   0.20867   0.20789   0.0650  0.9996  0.0017  -10.4042   0.0000   0.2966
 -22.700  -0.8843   0.20706   0.20627   0.0640  0.9996  0.0017  -10.4783   0.0000   0.2956
 -22.600  -0.8840   0.20560   0.20481   0.0631  0.9996  0.0018  -10.5240   0.0000   0.2947
 -22.500  -0.8837   0.20414   0.20335   0.0621  0.9996  0.0018  -10.5676   0.0000   0.2937
 -22.400  -0.8906   0.20082   0.20001   0.0602  0.9996  0.0018  -10.9470   0.0000   0.2909
 -22.300  -0.8918   0.19899   0.19817   0.0591  0.9996  0.0018  -11.0511   0.0000   0.2896
 -22.200  -0.8922   0.19740   0.19657   0.0580  0.9997  0.0018  -11.1119   0.0000   0.2885
 -22.100  -0.8926   0.19579   0.19496   0.0570  0.9997  0.0019  -11.1718   0.0000   0.2874
 -22.000  -0.9017   0.19206   0.19119   0.0548  0.9997  0.0019  -11.6014   0.0000   0.2841
 -21.900  -0.9031   0.19024   0.18937   0.0536  0.9997  0.0019  -11.6918   0.0000   0.2828
 -21.700  -0.9056   0.18206   0.18113   0.0455  1.0000  0.0019  -12.2509   0.0000   0.2735
 -21.600  -0.9164   0.17734   0.17636   0.0419  1.0000  0.0019  -12.7409   0.0000   0.2689
 -21.500  -0.9213   0.17477   0.17378   0.0402  1.0000  0.0019  -12.9316   0.0000   0.2668
 -21.400  -0.9381   0.16967   0.16863   0.0369  1.0000  0.0019  -13.5292   0.0000   0.2623
 -21.300  -0.9585   0.16395   0.16286   0.0331  1.0000  0.0019  -14.2098   0.0000   0.2572
 -21.200  -0.9978   0.15465   0.15346   0.0267  1.0000  0.0019  -15.4369   0.0000   0.2491
 -21.100  -1.0488   0.14338   0.14206   0.0188  1.0000  0.0019  -16.9212   0.0000   0.2399
 -21.000  -1.1833   0.11723   0.11559   0.0001  1.0000  0.0017  -20.5090   0.0000   0.2213
 -20.900  -1.2619   0.10171   0.09987  -0.0108  1.0000  0.0016  -22.4061   0.0000   0.2126
 -20.800  -1.3109   0.09161   0.08962  -0.0178  1.0000  0.0016  -23.5023   0.0000   0.2077
 -20.700  -1.3471   0.08389   0.08180  -0.0231  1.0000  0.0015  -24.2594   0.0000   0.2044
 -20.600  -1.3741   0.07798   0.07580  -0.0270  1.0000  0.0015  -24.7815   0.0000   0.2021
 -20.500  -1.3970   0.07292   0.07066  -0.0303  1.0000  0.0015  -25.1960   0.0000   0.2003
 -20.400  -1.4168   0.06850   0.06618  -0.0331  1.0000  0.0014  -25.5294   0.0000   0.1989
 -20.300  -1.4342   0.06460   0.06221  -0.0356  1.0000  0.0014  -25.8011   0.0000   0.1977
 -20.200  -1.4487   0.06125   0.05881  -0.0376  1.0000  0.0014  -26.0047   0.0000   0.1968
 -20.100  -1.4623   0.05812   0.05562  -0.0394  1.0000  0.0014  -26.1817   0.0000   0.1961
 -20.000  -1.4744   0.05529   0.05274  -0.0409  1.0000  0.0014  -26.3214   0.0000   0.1955
 -19.900  -1.4852   0.05270   0.05011  -0.0423  1.0000  0.0014  -26.4318   0.0000   0.1951
 -19.800  -1.4953   0.05029   0.04765  -0.0435  1.0000  0.0014  -26.5220   0.0000   0.1947
 -19.700  -1.5044   0.04809   0.04541  -0.0445  1.0000  0.0014  -26.5878   0.0000   0.1945
 -19.600  -1.5130   0.04603   0.04330  -0.0453  1.0000  0.0014  -26.6401   0.0000   0.1943
 -19.500  -1.5207   0.04413   0.04137  -0.0460  1.0000  0.0014  -26.6724   0.0000   0.1943
 -19.400  -1.5281   0.04233   0.03953  -0.0466  1.0000  0.0014  -26.6950   0.0000   0.1943
 -19.300  -1.5349   0.04068   0.03783  -0.0470  1.0000  0.0014  -26.7021   0.0000   0.1944
 -19.200  -1.5414   0.03913   0.03625  -0.0473  1.0000  0.0014  -26.7004   0.0000   0.1946
 -19.100  -1.5474   0.03770   0.03478  -0.0474  1.0000  0.0014  -26.6871   0.0000   0.1949
 -19.000  -1.5532   0.03636   0.03341  -0.0473  1.0000  0.0015  -26.6664   0.0000   0.1953
 -18.900  -1.5585   0.03513   0.03215  -0.0472  1.0000  0.0015  -26.6348   0.0000   0.1957
 -18.800  -1.5635   0.03400   0.03098  -0.0469  1.0000  0.0015  -26.5948   0.0000   0.1962
 -18.700  -1.5683   0.03294   0.02989  -0.0465  1.0000  0.0015  -26.5486   0.0000   0.1967
 -18.600  -1.5728   0.03194   0.02886  -0.0460  1.0000  0.0015  -26.4962   0.0000   0.1973
 -18.500  -1.5769   0.03102   0.02791  -0.0455  1.0000  0.0015  -26.4341   0.0000   0.1980
 -18.400  -1.5804   0.03016   0.02703  -0.0448  1.0000  0.0015  -26.3619   0.0000   0.1987
 -18.300  -1.5842   0.02934   0.02618  -0.0440  1.0000  0.0015  -26.2913   0.0000   0.1994
 -18.200  -1.5876   0.02858   0.02539  -0.0432  1.0000  0.0015  -26.2135   0.0000   0.2002
 -18.100  -1.5903   0.02788   0.02466  -0.0423  1.0000  0.0015  -26.1239   0.0000   0.2010
 -18.000  -1.5937   0.02720   0.02395  -0.0413  1.0000  0.0016  -26.0423   0.0000   0.2019
 -17.900  -1.5957   0.02659   0.02332  -0.0403  1.0000  0.0016  -25.9392   0.0000   0.2027
 -17.800  -1.5986   0.02600   0.02270  -0.0392  1.0000  0.0016  -25.8487   0.0000   0.2037
 -17.700  -1.6002   0.02546   0.02213  -0.0381  1.0000  0.0016  -25.7383   0.0000   0.2046
 -17.600  -1.6021   0.02493   0.02159  -0.0369  1.0000  0.0016  -25.6303   0.0000   0.2055
 -17.500  -1.6042   0.02443   0.02106  -0.0356  1.0000  0.0016  -25.5247   0.0000   0.2065
 -17.400  -1.6049   0.02398   0.02059  -0.0345  1.0000  0.0016  -25.3965   0.0000   0.2075
 -17.300  -1.6067   0.02354   0.02012  -0.0331  1.0000  0.0016  -25.2851   0.0000   0.2085
 -17.200  -1.6078   0.02313   0.01969  -0.0318  1.0000  0.0016  -25.1624   0.0000   0.2095
 -17.100  -1.6079   0.02275   0.01929  -0.0305  1.0000  0.0017  -25.0239   0.0000   0.2105
 -17.000  -1.6088   0.02239   0.01891  -0.0290  1.0000  0.0017  -24.8987   0.0000   0.2116
 -16.900  -1.6103   0.02204   0.01854  -0.0275  1.0000  0.0017  -24.7793   0.0000   0.2127
 -16.800  -1.6096   0.02172   0.01820  -0.0261  1.0000  0.0017  -24.6299   0.0000   0.2137
 -16.700  -1.6094   0.02140   0.01786  -0.0247  1.0000  0.0017  -24.4856   0.0000   0.2148
 -16.600  -1.6103   0.02110   0.01754  -0.0230  1.0000  0.0017  -24.3576   0.0000   0.2160
 -16.500  -1.6113   0.02081   0.01723  -0.0213  1.0000  0.0017  -24.2307   0.0000   0.2172
 -16.400  -1.6099   0.02054   0.01694  -0.0199  1.0000  0.0017  -24.0684   0.0000   0.2183
 -16.300  -1.6084   0.02029   0.01667  -0.0185  1.0000  0.0018  -23.9062   0.0000   0.2193
 -16.200  -1.6073   0.02005   0.01642  -0.0170  1.0000  0.0018  -23.7489   0.0000   0.2204
 -16.100  -1.6070   0.01983   0.01618  -0.0152  1.0000  0.0018  -23.6031   0.0000   0.2216
 -16.000  -1.6089   0.01964   0.01597  -0.0131  1.0000  0.0018  -23.4862   0.0000   0.2232
 -15.900  -1.6130   0.01948   0.01579  -0.0104  1.0000  0.0018  -23.4001   0.0000   0.2250
 -15.800  -1.6102   0.01926   0.01555  -0.0091  1.0000  0.0018  -23.2204   0.0000   0.2259
 -15.700  -1.6058   0.01903   0.01531  -0.0080  1.0000  0.0018  -23.0182   0.0000   0.2267
 -15.600  -1.6009   0.01881   0.01507  -0.0071  1.0000  0.0018  -22.8110   0.0000   0.2275
 -15.500  -1.5956   0.01859   0.01484  -0.0062  1.0000  0.0019  -22.5998   0.0000   0.2282
 -15.400  -1.5901   0.01837   0.01461  -0.0053  1.0000  0.0019  -22.3852   0.0000   0.2289
 -15.300  -1.5843   0.01815   0.01438  -0.0045  1.0000  0.0019  -22.1676   0.0000   0.2296
 -15.200  -1.5782   0.01794   0.01416  -0.0037  1.0000  0.0019  -21.9474   0.0000   0.2302
 -15.100  -1.5718   0.01773   0.01394  -0.0030  1.0000  0.0019  -21.7249   0.0000   0.2309
 -15.000  -1.5653   0.01753   0.01372  -0.0023  1.0000  0.0019  -21.5005   0.0000   0.2315
 -14.900  -1.5585   0.01733   0.01351  -0.0016  1.0000  0.0020  -21.2744   0.0000   0.2321
 -14.800  -1.5516   0.01713   0.01330  -0.0009  1.0000  0.0020  -21.0468   0.0000   0.2327
 -14.700  -1.5445   0.01694   0.01309  -0.0003  1.0000  0.0020  -20.8180   0.0000   0.2332
 -14.600  -1.5372   0.01674   0.01289   0.0003  1.0000  0.0020  -20.5880   0.0000   0.2338
 -14.500  -1.5298   0.01656   0.01269   0.0009  1.0000  0.0020  -20.3571   0.0000   0.2344
 -14.400  -1.5222   0.01637   0.01250   0.0015  1.0000  0.0020  -20.1255   0.0000   0.2349
 -14.300  -1.5145   0.01619   0.01231   0.0020  1.0000  0.0020  -19.8933   0.0000   0.2354
 -14.200  -1.5067   0.01601   0.01212   0.0026  1.0000  0.0020  -19.6606   0.0000   0.2360
 -14.100  -1.4987   0.01583   0.01193   0.0031  1.0000  0.0020  -19.4276   0.0000   0.2365
 -14.000  -1.4906   0.01566   0.01175   0.0036  1.0000  0.0020  -19.1944   0.0000   0.2370
 -13.900  -1.4825   0.01549   0.01157   0.0041  1.0000  0.0021  -18.9610   0.0000   0.2375
 -13.800  -1.4742   0.01532   0.01139   0.0045  1.0000  0.0021  -18.7277   0.0000   0.2380
 -13.700  -1.4658   0.01516   0.01122   0.0050  1.0000  0.0021  -18.4944   0.0000   0.2385
 -13.600  -1.4573   0.01499   0.01105   0.0054  1.0000  0.0021  -18.2612   0.0000   0.2390
 -13.500  -1.4488   0.01483   0.01088   0.0059  1.0000  0.0021  -18.0283   0.0000   0.2395
 -13.400  -1.4401   0.01467   0.01071   0.0063  1.0000  0.0021  -17.7956   0.0000   0.2399
 -13.300  -1.4314   0.01451   0.01054   0.0067  1.0000  0.0021  -17.5634   0.0000   0.2404
 -13.200  -1.4226   0.01436   0.01038   0.0071  1.0000  0.0021  -17.3316   0.0000   0.2409
 -13.100  -1.4138   0.01421   0.01022   0.0075  1.0000  0.0021  -17.1002   0.0000   0.2413
 -13.000  -1.4048   0.01406   0.01007   0.0079  1.0000  0.0021  -16.8695   0.0000   0.2418
 -12.900  -1.3958   0.01391   0.00991   0.0083  1.0000  0.0021  -16.6393   0.0000   0.2423
 -12.800  -1.3867   0.01376   0.00976   0.0086  1.0000  0.0021  -16.4098   0.0000   0.2427
 -12.700  -1.3776   0.01361   0.00961   0.0090  1.0000  0.0021  -16.1810   0.0000   0.2432
 -12.600  -1.3688   0.01344   0.00942   0.0094  1.0000  0.0022  -15.9608   0.0000   0.2436
 -12.500  -1.3598   0.01326   0.00923   0.0098  1.0000  0.0022  -15.7407   0.0000   0.2441
 -12.400  -1.3508   0.01309   0.00905   0.0102  1.0000  0.0022  -15.5206   0.0000   0.2446
 -12.300  -1.3416   0.01293   0.00888   0.0105  1.0000  0.0023  -15.3007   0.0000   0.2451
 -12.200  -1.3324   0.01277   0.00871   0.0109  1.0000  0.0024  -15.0811   0.0000   0.2455
 -12.100  -1.3232   0.01261   0.00854   0.0112  1.0000  0.0024  -14.8618   0.0000   0.2460
 -12.000  -1.3138   0.01246   0.00838   0.0115  1.0000  0.0025  -14.6431   0.0000   0.2465
 -11.900  -1.3044   0.01230   0.00823   0.0119  1.0000  0.0025  -14.4248   0.0000   0.2469
 -11.800  -1.2950   0.01216   0.00807   0.0122  1.0000  0.0026  -14.2072   0.0000   0.2474
 -11.700  -1.2854   0.01201   0.00792   0.0125  1.0000  0.0027  -13.9900   0.0000   0.2478
 -11.600  -1.2759   0.01187   0.00778   0.0128  1.0000  0.0027  -13.7735   0.0000   0.2483
 -11.500  -1.2662   0.01173   0.00763   0.0131  1.0000  0.0028  -13.5579   0.0000   0.2487
 -11.400  -1.2565   0.01159   0.00749   0.0134  1.0000  0.0028  -13.3432   0.0000   0.2491
 -11.300  -1.2468   0.01146   0.00736   0.0137  1.0000  0.0029  -13.1292   0.0000   0.2496
 -11.200  -1.2370   0.01133   0.00722   0.0139  1.0000  0.0029  -12.9162   0.0000   0.2500
 -11.100  -1.2271   0.01120   0.00709   0.0142  1.0000  0.0030  -12.7039   0.0000   0.2505
 -11.000  -1.2172   0.01107   0.00697   0.0144  1.0000  0.0030  -12.4926   0.0000   0.2509
 -10.900  -1.2073   0.01095   0.00684   0.0147  1.0000  0.0031  -12.2824   0.0000   0.2513
 -10.800  -1.1973   0.01084   0.00672   0.0149  1.0000  0.0031  -12.0733   0.0000   0.2518
 -10.700  -1.1872   0.01072   0.00661   0.0152  1.0000  0.0031  -11.8653   0.0000   0.2522
 -10.600  -1.1771   0.01061   0.00649   0.0154  1.0000  0.0032  -11.6584   0.0000   0.2526
 -10.500  -1.1674   0.01073   0.00637   0.0157  0.8654  0.0032  -11.4565   0.0000   0.2532
 -10.200  -1.1384   0.01073   0.00601   0.0166  0.7107  0.0033  -10.8637   0.0000   0.2547
 -10.000  -1.1179   0.01057   0.00580   0.0170  0.6886  0.0033  -10.4643   0.0000   0.2555
  -9.900  -1.1076   0.01049   0.00569   0.0172  0.6791  0.0033  -10.2664   0.0000   0.2560
  -9.800  -1.0972   0.01040   0.00559   0.0174  0.6734  0.0033  -10.0694   0.0000   0.2564
  -9.700  -1.0868   0.01033   0.00550   0.0176  0.6666  0.0034  -9.8740   0.0000   0.2569
  -9.600  -1.0765   0.01023   0.00539   0.0178  0.6610  0.0034  -9.6822   0.0000   0.2573
  -9.500  -1.0662   0.01012   0.00527   0.0180  0.6566  0.0036  -9.4938   0.0000   0.2578
  -9.400  -1.0559   0.01002   0.00515   0.0182  0.6513  0.0037  -9.3063   0.0000   0.2583
  -9.300  -1.0455   0.00992   0.00504   0.0184  0.6465  0.0038  -9.1197   0.0000   0.2587
  -9.200  -1.0351   0.00982   0.00493   0.0185  0.6433  0.0040  -8.9375   0.0000   0.2592
  -9.100  -1.0247   0.00973   0.00483   0.0187  0.6394  0.0041  -8.7636   0.0000   0.2597
  -9.000  -1.0142   0.00964   0.00472   0.0189  0.6349  0.0042  -8.5907   0.0000   0.2601
  -8.900  -1.0037   0.00954   0.00462   0.0191  0.6313  0.0043  -8.4188   0.0000   0.2606
  -8.800  -0.9932   0.00945   0.00453   0.0192  0.6284  0.0044  -8.2478   0.0000   0.2611
  -8.700  -0.9826   0.00937   0.00444   0.0194  0.6249  0.0045  -8.0781   0.0000   0.2616
  -8.600  -0.9719   0.00929   0.00435   0.0195  0.6208  0.0046  -7.9096   0.0000   0.2620
  -8.500  -0.9613   0.00922   0.00427   0.0197  0.6173  0.0047  -7.7422   0.0000   0.2625
  -8.400  -0.9506   0.00914   0.00418   0.0198  0.6147  0.0048  -7.5760   0.0000   0.2630
  -8.300  -0.9399   0.00907   0.00410   0.0200  0.6112  0.0048  -7.4111   0.0000   0.2635
  -8.200  -0.9291   0.00900   0.00402   0.0201  0.6071  0.0049  -7.2476   0.0000   0.2640
  -8.100  -0.9183   0.00893   0.00395   0.0202  0.6035  0.0049  -7.0853   0.0000   0.2645
  -8.000  -0.9075   0.00886   0.00387   0.0203  0.6008  0.0049  -6.9243   0.0000   0.2650
  -7.900  -0.8968   0.00878   0.00378   0.0205  0.5971  0.0052  -6.7675   0.0000   0.2655
  -7.800  -0.8861   0.00870   0.00369   0.0206  0.5926  0.0054  -6.6120   0.0000   0.2661
  -7.700  -0.8754   0.00862   0.00361   0.0208  0.5893  0.0057  -6.4574   0.0000   0.2666
  -7.600  -0.8646   0.00854   0.00352   0.0209  0.5858  0.0059  -6.3068   0.0000   0.2671
  -7.500  -0.8538   0.00847   0.00344   0.0210  0.5815  0.0062  -6.1644   0.0000   0.2677
  -7.400  -0.8430   0.00840   0.00336   0.0212  0.5769  0.0063  -6.0229   0.0000   0.2682
  -7.300  -0.8321   0.00833   0.00329   0.0213  0.5733  0.0065  -5.8823   0.0000   0.2688
  -7.200  -0.8212   0.00827   0.00322   0.0214  0.5685  0.0067  -5.7430   0.0000   0.2694
  -7.100  -0.8103   0.00822   0.00316   0.0215  0.5636  0.0068  -5.6048   0.0000   0.2699
  -7.000  -0.7993   0.00816   0.00309   0.0216  0.5598  0.0068  -5.4676   0.0000   0.2705
  -6.900  -0.7884   0.00810   0.00302   0.0217  0.5546  0.0070  -5.3328   0.0000   0.2711
  -6.800  -0.7775   0.00804   0.00295   0.0218  0.5496  0.0075  -5.2001   0.0000   0.2717
  -6.700  -0.7666   0.00797   0.00287   0.0219  0.5454  0.0079  -5.0683   0.0000   0.2724
  -6.600  -0.7557   0.00790   0.00280   0.0220  0.5399  0.0083  -4.9376   0.0000   0.2730
  -6.500  -0.7447   0.00785   0.00274   0.0221  0.5352  0.0086  -4.8077   0.0000   0.2737
  -6.400  -0.7337   0.00779   0.00268   0.0222  0.5303  0.0089  -4.6788   0.0000   0.2743
  -6.300  -0.7226   0.00775   0.00262   0.0223  0.5242  0.0091  -4.5511   0.0000   0.2750
  -6.200  -0.7116   0.00769   0.00256   0.0224  0.5202  0.0095  -4.4254   0.0000   0.2757
  -6.100  -0.7006   0.00763   0.00249   0.0225  0.5148  0.0103  -4.3018   0.0000   0.2764
  -6.000  -0.6897   0.00757   0.00242   0.0226  0.5091  0.0109  -4.1791   0.0000   0.2771
  -5.900  -0.6786   0.00752   0.00237   0.0227  0.5044  0.0114  -4.0570   0.0000   0.2778
  -5.800  -0.6675   0.00748   0.00231   0.0228  0.4984  0.0117  -3.9362   0.0000   0.2786
  -5.700  -0.6564   0.00743   0.00225   0.0228  0.4937  0.0125  -3.8174   0.0000   0.2794
  -5.600  -0.6454   0.00737   0.00219   0.0229  0.4884  0.0135  -3.7080   0.0000   0.2802
  -5.500  -0.6344   0.00732   0.00214   0.0230  0.4821  0.0142  -3.6008   0.0000   0.2810
  -5.400  -0.6232   0.00728   0.00209   0.0231  0.4777  0.0147  -3.4943   0.0000   0.2818
  -5.300  -0.6121   0.00724   0.00204   0.0232  0.4716  0.0154  -3.3894   0.0000   0.2827
  -5.200  -0.6010   0.00718   0.00198   0.0232  0.4667  0.0166  -3.2861   0.0000   0.2836
  -5.100  -0.5899   0.00714   0.00193   0.0233  0.4613  0.0175  -3.1835   0.0000   0.2845
  -5.000  -0.5787   0.00711   0.00188   0.0234  0.4548  0.0181  -3.0817   0.0000   0.2855
  -4.900  -0.5676   0.00706   0.00183   0.0235  0.4505  0.0195  -2.9816   0.0000   0.2865
  -4.800  -0.5565   0.00701   0.00178   0.0235  0.4444  0.0210  -2.8829   0.0000   0.2875
  -4.700  -0.5453   0.00697   0.00173   0.0236  0.4393  0.0220  -2.7847   0.0000   0.2885
  -4.600  -0.5342   0.00692   0.00169   0.0237  0.4341  0.0240  -2.6884   0.0000   0.2896
  -4.500  -0.5230   0.00688   0.00164   0.0237  0.4274  0.0256  -2.5931   0.0000   0.2908
  -4.400  -0.5118   0.00685   0.00160   0.0238  0.4232  0.0266  -2.4984   0.0000   0.2919
  -4.300  -0.5006   0.00680   0.00155   0.0238  0.4172  0.0290  -2.4057   0.0000   0.2931
  -4.200  -0.4894   0.00676   0.00151   0.0239  0.4121  0.0307  -2.3184   0.0000   0.2944
  -4.100  -0.4782   0.00673   0.00147   0.0240  0.4073  0.0328  -2.2353   0.0000   0.2957
  -4.000  -0.4671   0.00669   0.00143   0.0240  0.4006  0.0354  -2.1537   0.0000   0.2971
  -3.900  -0.4558   0.00665   0.00139   0.0241  0.3964  0.0380  -2.0726   0.0000   0.2986
  -3.800  -0.4446   0.00660   0.00135   0.0241  0.3907  0.0410  -1.9929   0.0000   0.3001
  -3.700  -0.4334   0.00657   0.00131   0.0242  0.3853  0.0434  -1.9137   0.0000   0.3017
  -3.600  -0.4222   0.00652   0.00127   0.0242  0.3812  0.0467  -1.8359   0.0000   0.3033
  -3.500  -0.4109   0.00650   0.00124   0.0243  0.3752  0.0491  -1.7654   0.0000   0.3051
  -3.400  -0.3997   0.00645   0.00120   0.0243  0.3706  0.0536  -1.6965   0.0000   0.3069
  -3.300  -0.3885   0.00642   0.00117   0.0244  0.3657  0.0572  -1.6280   0.0000   0.3088
  -3.100  -0.3659   0.00636   0.00111   0.0245  0.3560  0.0641  -1.4937   0.0000   0.3131
  -3.000  -0.3547   0.00632   0.00108   0.0245  0.3515  0.0687  -1.4325   0.0000   0.3154
  -2.800  -0.3321   0.00625   0.00102   0.0246  0.3424  0.0769  -1.3145   0.0000   0.3204
  -2.700  -0.3208   0.00624   0.00100   0.0246  0.3375  0.0801  -1.2565   0.0000   0.3232
  -2.600  -0.3095   0.00620   0.00097   0.0247  0.3317  0.0854  -1.2045   0.0000   0.3261
  -2.500  -0.2981   0.00618   0.00095   0.0247  0.3287  0.0886  -1.1526   0.0000   0.3293
  -2.400  -0.2869   0.00614   0.00093   0.0247  0.3245  0.0939  -1.1019   0.0000   0.3328
  -2.300  -0.2755   0.00613   0.00091   0.0248  0.3194  0.0977  -1.0556   0.0000   0.3365
  -2.200  -0.2642   0.00609   0.00088   0.0248  0.3167  0.1037  -1.0101   0.0000   0.3405
  -2.100  -0.2528   0.00607   0.00086   0.0248  0.3131  0.1078  -0.9667   0.0000   0.3449
  -2.000  -0.2416   0.00604   0.00084   0.0248  0.3081  0.1147  -0.9259   0.0000   0.3497
  -1.900  -0.2302   0.00601   0.00082   0.0249  0.3041  0.1203  -0.8861   0.0000   0.3549
  -1.800  -0.2189   0.00598   0.00080   0.0249  0.3011  0.1267  -0.8492   0.0000   0.3607
  -1.700  -0.2076   0.00595   0.00078   0.0249  0.2970  0.1346  -0.8133   0.0000   0.3671
  -1.600  -0.1962   0.00593   0.00077   0.0250  0.2924  0.1414  -0.7798   0.0000   0.3743
  -1.500  -0.1849   0.00588   0.00075   0.0250  0.2904  0.1495  -0.7472   0.0000   0.3823
  -1.400  -0.1736   0.00584   0.00073   0.0250  0.2877  0.1593  -0.7170   0.0000   0.3913
  -1.300  -0.1624   0.00581   0.00072   0.0250  0.2838  0.1690  -0.6874   0.0000   0.4016
  -1.200  -0.1511   0.00578   0.00070   0.0251  0.2788  0.1788  -0.6598   0.0000   0.4134
  -1.100  -0.1397   0.00574   0.00068   0.0251  0.2768  0.1891  -0.6328   0.0000   0.4272
  -1.000  -0.1285   0.00570   0.00067   0.0251  0.2736  0.2003  -0.6076   0.0000   0.4433
  -0.900  -0.1172   0.00567   0.00066   0.0251  0.2696  0.2121  -0.5828   0.0000   0.4625
  -0.800  -0.1060   0.00563   0.00064   0.0252  0.2657  0.2250  -0.5725   0.0000   0.4858
  -0.700  -0.0947   0.00558   0.00063   0.0252  0.2641  0.2382  -0.5869   0.0000   0.5147
  -0.600  -0.0834   0.00554   0.00062   0.0252  0.2619  0.2517  -0.6013   0.0000   0.5513
  -0.500  -0.0721   0.00550   0.00061   0.0253  0.2588  0.2655  -0.6158   0.0000   0.5993
  -0.400  -0.0609   0.00547   0.00060   0.0253  0.2547  0.2791  -0.6303   0.0000   0.6650
  -0.300  -0.0496   0.00542   0.00059   0.0253  0.2522  0.2929  -0.6449   0.0000   0.7609
  -0.200  -0.0383   0.00538   0.00058   0.0253  0.2500  0.3065  -0.6602   0.0000   0.9135
  -0.100  -0.0270   0.00535   0.00057   0.0253  0.2469  0.3191  -0.6758   0.0000   1.1939
   0.000  -0.0157   0.00533   0.00057   0.0253  0.2429  0.3312  -0.6914   0.0000   1.8786
   0.100  -0.0043   0.00531   0.00057   0.0254  0.2398  0.3423  -0.7071   0.0000   6.1965
   0.200   0.0071   0.00529   0.00057   0.0254  0.2383  0.3520  -0.7230   0.0000  -3.3450
   0.300   0.0185   0.00527   0.00056   0.0254  0.2362  0.3625  -0.7389   0.0000  -1.1375
   0.400   0.0299   0.00525   0.00056   0.0254  0.2336  0.3728  -0.7549   0.0000  -0.6112
   0.500   0.0413   0.00524   0.00057   0.0254  0.2303  0.3816  -0.7709   0.0000  -0.3742
   0.600   0.0527   0.00523   0.00057   0.0254  0.2275  0.3907  -0.7870   0.0000  -0.2400
   0.700   0.0642   0.00521   0.00057   0.0254  0.2263  0.3982  -0.8034   0.0000  -0.1531
   0.800   0.0756   0.00520   0.00057   0.0254  0.2245  0.4061  -0.8206   0.0000  -0.0926
   0.900   0.0870   0.00519   0.00058   0.0254  0.2220  0.4157  -0.8378   0.0000  -0.0483
   1.000   0.0985   0.00520   0.00058   0.0254  0.2188  0.4231  -0.8551   0.0000  -0.0141
   1.100   0.1099   0.00519   0.00059   0.0254  0.2153  0.4316  -0.8725   0.0000   0.0129
   1.200   0.1214   0.00518   0.00059   0.0254  0.2141  0.4387  -0.8900   0.0000   0.0350
   1.300   0.1328   0.00517   0.00060   0.0253  0.2122  0.4475  -0.9075   0.0000   0.0531
   1.400   0.1443   0.00517   0.00061   0.0253  0.2097  0.4561  -0.9251   0.0000   0.0684
   1.500   0.1557   0.00517   0.00062   0.0253  0.2069  0.4645  -0.9428   0.0000   0.0814
   1.600   0.1671   0.00517   0.00063   0.0253  0.2038  0.4749  -0.9604   0.0000   0.0926
   1.700   0.1785   0.00515   0.00063   0.0253  0.2026  0.4846  -0.9782   0.0000   0.1024
   1.800   0.1900   0.00514   0.00064   0.0253  0.2015  0.4948  -0.9962   0.0000   0.1111
   1.900   0.2014   0.00513   0.00065   0.0253  0.1999  0.5058  -1.0141   0.0000   0.1187
   2.000   0.2128   0.00511   0.00066   0.0253  0.1979  0.5180  -1.0329   0.0000   0.1254
   2.100   0.2241   0.00511   0.00067   0.0253  0.1956  0.5305  -1.0519   0.0000   0.1315
   2.200   0.2355   0.00510   0.00068   0.0253  0.1927  0.5435  -1.0710   0.0000   0.1369
   2.300   0.2468   0.00508   0.00069   0.0253  0.1910  0.5573  -1.0902   0.0000   0.1419
   2.400   0.2582   0.00505   0.00070   0.0253  0.1902  0.5723  -1.1094   0.0000   0.1464
   2.500   0.2695   0.00502   0.00071   0.0253  0.1890  0.5900  -1.1287   0.0000   0.1504
   2.600   0.2807   0.00497   0.00072   0.0254  0.1875  0.6131  -1.1480   0.0000   0.1541
   2.700   0.2917   0.00492   0.00073   0.0254  0.1856  0.6416  -1.1671   0.0000   0.1574
   2.800   0.3027   0.00486   0.00075   0.0254  0.1834  0.6715  -1.1863   0.0000   0.1603
   2.900   0.3138   0.00482   0.00077   0.0255  0.1807  0.6968  -1.2057   0.0000   0.1632
   3.000   0.3250   0.00478   0.00078   0.0255  0.1793  0.7182  -1.2252   0.0000   0.1658
   3.100   0.3362   0.00475   0.00080   0.0255  0.1785  0.7350  -1.2449   0.0000   0.1684
   3.200   0.3475   0.00473   0.00081   0.0256  0.1772  0.7513  -1.2647   0.0000   0.1707
   3.300   0.3588   0.00472   0.00083   0.0256  0.1755  0.7642  -1.2846   0.0000   0.1729
   3.400   0.3701   0.00472   0.00085   0.0256  0.1734  0.7754  -1.3045   0.0000   0.1750
   3.500   0.3814   0.00473   0.00088   0.0256  0.1710  0.7855  -1.3245   0.0000   0.1770
   3.600   0.3926   0.00473   0.00089   0.0256  0.1685  0.7965  -1.3445   0.0000   0.1789
   3.700   0.4041   0.00474   0.00091   0.0256  0.1678  0.8023  -1.3649   0.0000   0.1807
   3.800   0.4155   0.00474   0.00093   0.0256  0.1672  0.8123  -1.3852   0.0000   0.1824
   3.900   0.4268   0.00473   0.00095   0.0257  0.1662  0.8215  -1.4056   0.0000   0.1839
   4.000   0.4382   0.00474   0.00097   0.0257  0.1650  0.8272  -1.4261   0.0000   0.1854
   4.100   0.4496   0.00477   0.00100   0.0256  0.1636  0.8312  -1.4475   0.0000   0.1869
   4.200   0.4609   0.00478   0.00103   0.0257  0.1620  0.8411  -1.4691   0.0000   0.1882
   4.300   0.4721   0.00479   0.00105   0.0257  0.1600  0.8489  -1.4907   0.0000   0.1893
   4.400   0.4834   0.00481   0.00108   0.0257  0.1579  0.8544  -1.5125   0.0000   0.1906
   4.500   0.4949   0.00483   0.00110   0.0257  0.1569  0.8577  -1.5346   0.0000   0.1917
   4.600   0.5063   0.00484   0.00113   0.0257  0.1564  0.8617  -1.5569   0.0000   0.1929
   4.700   0.5176   0.00484   0.00115   0.0257  0.1558  0.8704  -1.5789   0.0000   0.1939
   4.800   0.5287   0.00485   0.00117   0.0258  0.1549  0.8775  -1.6009   0.0000   0.1948
   4.900   0.5400   0.00486   0.00120   0.0258  0.1538  0.8832  -1.6232   0.0000   0.1956
   5.000   0.5513   0.00489   0.00123   0.0258  0.1525  0.8870  -1.6455   0.0000   0.1965
   5.100   0.5627   0.00493   0.00126   0.0258  0.1509  0.8895  -1.6680   0.0000   0.1974
   5.200   0.5740   0.00497   0.00130   0.0258  0.1481  0.8934  -1.6903   0.0000   0.1983
   5.300   0.5850   0.00498   0.00133   0.0259  0.1458  0.9019  -1.7126   0.0000   0.1989
   5.400   0.5960   0.00500   0.00136   0.0260  0.1445  0.9089  -1.7349   0.0000   0.1995
   5.500   0.6070   0.00501   0.00139   0.0260  0.1432  0.9147  -1.7575   0.0000   0.2001
   5.600   0.6182   0.00505   0.00143   0.0261  0.1413  0.9191  -1.7801   0.0000   0.2008
   5.700   0.6294   0.00511   0.00147   0.0261  0.1381  0.9219  -1.8028   0.0000   0.2014
   5.800   0.6408   0.00515   0.00150   0.0261  0.1354  0.9238  -1.8257   0.0000   0.2021
   5.900   0.6521   0.00518   0.00154   0.0261  0.1341  0.9285  -1.8489   0.0000   0.2027
   6.000   0.6630   0.00521   0.00158   0.0262  0.1321  0.9375  -1.8716   0.0000   0.2031
   6.100   0.6737   0.00526   0.00163   0.0263  0.1291  0.9451  -1.8941   0.0000   0.2035
   6.200   0.6845   0.00531   0.00168   0.0264  0.1253  0.9513  -1.9168   0.0000   0.2039
   6.300   0.6956   0.00534   0.00172   0.0264  0.1239  0.9558  -1.9400   0.0000   0.2043
   6.400   0.7067   0.00540   0.00176   0.0265  0.1217  0.9585  -1.9642   0.0000   0.2048
   6.500   0.7178   0.00547   0.00182   0.0265  0.1185  0.9603  -1.9885   0.0000   0.2053
   6.600   0.7294   0.00553   0.00187   0.0264  0.1150  0.9646  -2.0794   0.0000   0.2059
   6.700   0.7416   0.00559   0.00192   0.0262  0.1120  0.9712  -2.1818   0.0000   0.2067
   6.800   0.7539   0.00570   0.00200   0.0259  0.1063  0.9764  -2.2855   0.0000   0.2075
   6.900   0.7663   0.00576   0.00205   0.0256  0.1033  0.9804  -2.3919   0.0000   0.2084
   7.000   0.7783   0.00590   0.00215   0.0254  0.0955  0.9838  -2.4971   0.0000   0.2091
   7.100   0.7896   0.00617   0.00233   0.0252  0.0804  0.9866  -2.5987   0.0000   0.2097
   7.200   0.7965   0.00731   0.00314   0.0254  0.0130  0.9897  -2.6685   0.0000   0.2096
   7.300   0.8079   0.00748   0.00328   0.0253  0.0072  0.9910  -2.7731   0.0000   0.2101
   7.400   0.8196   0.00759   0.00338   0.0252  0.0048  0.9920  -2.8805   0.0000   0.2106
   7.500   0.8312   0.00769   0.00347   0.0250  0.0034  0.9929  -2.9888   0.0000   0.2111
   7.600   0.8429   0.00779   0.00355   0.0249  0.0028  0.9937  -3.1010   0.0000   0.2116
   7.700   0.8545   0.00788   0.00364   0.0248  0.0020  0.9944  -3.2226   0.0000   0.2120
   7.800   0.8662   0.00795   0.00371   0.0246  0.0019  0.9949  -3.3505   0.0000   0.2125
   7.900   0.8779   0.00804   0.00379   0.0245  0.0018  0.9955  -3.4792   0.0000   0.2129
   8.000   0.8895   0.00813   0.00388   0.0244  0.0017  0.9959  -3.6090   0.0000   0.2133
   8.100   0.9012   0.00821   0.00396   0.0242  0.0016  0.9964  -3.7406   0.0000   0.2137
   8.200   0.9128   0.00830   0.00405   0.0241  0.0015  0.9967  -3.8739   0.0000   0.2141
   8.300   0.9245   0.00839   0.00414   0.0240  0.0015  0.9971  -4.0089   0.0000   0.2145
   8.400   0.9362   0.00848   0.00422   0.0238  0.0014  0.9974  -4.1458   0.0000   0.2148
   8.500   0.9479   0.00857   0.00432   0.0236  0.0014  0.9977  -4.2845   0.0000   0.2152
   8.600   0.9596   0.00867   0.00441   0.0235  0.0013  0.9979  -4.4252   0.0000   0.2156
   8.700   0.9714   0.00876   0.00450   0.0233  0.0013  0.9982  -4.5681   0.0000   0.2159
   8.800   0.9833   0.00886   0.00460   0.0231  0.0013  0.9984  -4.7133   0.0000   0.2163
   8.900   0.9952   0.00896   0.00470   0.0229  0.0012  0.9986  -4.8604   0.0000   0.2167
   9.000   1.0072   0.00906   0.00481   0.0227  0.0012  0.9987  -5.0094   0.0000   0.2170
   9.100   1.0190   0.00917   0.00491   0.0225  0.0012  0.9989  -5.1598   0.0000   0.2174
   9.200   1.0308   0.00927   0.00502   0.0223  0.0012  0.9990  -5.3117   0.0000   0.2177
   9.300   1.0426   0.00938   0.00513   0.0221  0.0012  0.9991  -5.4648   0.0000   0.2180
   9.400   1.0542   0.00949   0.00525   0.0219  0.0012  0.9992  -5.6188   0.0000   0.2182
   9.500   1.0657   0.00961   0.00537   0.0218  0.0011  0.9993  -5.7737   0.0000   0.2185
   9.600   1.0771   0.00973   0.00549   0.0216  0.0011  0.9994  -5.9291   0.0000   0.2187
   9.700   1.0883   0.00985   0.00561   0.0215  0.0011  0.9995  -6.0852   0.0000   0.2188
   9.800   1.0994   0.00997   0.00574   0.0215  0.0011  0.9995  -6.2418   0.0000   0.2190
   9.900   1.1104   0.01009   0.00587   0.0214  0.0011  0.9996  -6.3989   0.0000   0.2191
  10.000   1.1213   0.01022   0.00601   0.0214  0.0011  0.9996  -6.5567   0.0000   0.2191
  10.100   1.1321   0.01036   0.00615   0.0214  0.0011  0.9996  -6.7153   0.0000   0.2192
  10.200   1.1429   0.01050   0.00630   0.0213  0.0010  0.9997  -6.8747   0.0000   0.2193
  10.300   1.1536   0.01064   0.00645   0.0213  0.0010  0.9997  -7.0347   0.0000   0.2193
  10.400   1.1642   0.01080   0.00662   0.0213  0.0010  0.9998  -7.1950   0.0000   0.2193
  10.500   1.1748   0.01096   0.00679   0.0213  0.0010  0.9998  -7.3553   0.0000   0.2194
  10.600   1.1853   0.01113   0.00698   0.0213  0.0010  0.9998  -7.5149   0.0000   0.2194
  10.700   1.1956   0.01132   0.00718   0.0213  0.0010  0.9999  -7.6730   0.0000   0.2194
  10.800   1.2057   0.01153   0.00741   0.0214  0.0009  0.9999  -7.8279   0.0000   0.2193
  10.900   1.2154   0.01178   0.00770   0.0215  0.0009  0.9999  -7.9752   0.0000   0.2192
  11.000   1.2257   0.01194   0.00787   0.0215  0.0009  0.9999  -8.1468   0.0000   0.2192
  11.100   1.2362   0.01208   0.00800   0.0215  0.0009  1.0000  -8.3270   0.0000   0.2192
  11.200   1.2466   0.01221   0.00814   0.0215  0.0009  1.0000  -8.5089   0.0000   0.2192
  11.300   1.2561   0.01234   0.00827   0.0217  0.0009  1.0000  -8.6847   0.0000   0.2190
  11.400   1.2654   0.01247   0.00841   0.0220  0.0009  1.0000  -8.8610   0.0000   0.2188
  11.500   1.2747   0.01261   0.00854   0.0222  0.0009  1.0000  -9.0385   0.0000   0.2186
  11.600   1.2840   0.01274   0.00868   0.0225  0.0009  1.0000  -9.2173   0.0000   0.2183
  11.700   1.2932   0.01288   0.00882   0.0227  0.0009  1.0000  -9.3972   0.0000   0.2181
  11.800   1.3023   0.01302   0.00896   0.0230  0.0009  1.0000  -9.5783   0.0000   0.2179
  11.900   1.3114   0.01316   0.00911   0.0232  0.0009  1.0000  -9.7605   0.0000   0.2177
  12.000   1.3204   0.01330   0.00925   0.0235  0.0009  1.0000  -9.9438   0.0000   0.2174
  12.100   1.3294   0.01345   0.00940   0.0238  0.0009  1.0000  -10.1280   0.0000   0.2172
  12.200   1.3383   0.01359   0.00955   0.0240  0.0009  1.0000  -10.3132   0.0000   0.2169
  12.300   1.3471   0.01374   0.00970   0.0243  0.0009  1.0000  -10.4992   0.0000   0.2166
  12.400   1.3558   0.01389   0.00985   0.0246  0.0009  1.0000  -10.6861   0.0000   0.2164
  12.500   1.3645   0.01404   0.01000   0.0249  0.0009  1.0000  -10.8737   0.0000   0.2161
  12.600   1.3731   0.01419   0.01016   0.0253  0.0009  1.0000  -11.0620   0.0000   0.2158
  12.700   1.3816   0.01434   0.01032   0.0256  0.0009  1.0000  -11.2509   0.0000   0.2155
  12.800   1.3900   0.01450   0.01048   0.0259  0.0009  1.0000  -11.4403   0.0000   0.2152
  12.900   1.3983   0.01466   0.01064   0.0263  0.0009  1.0000  -11.6302   0.0000   0.2149
  13.000   1.4065   0.01482   0.01081   0.0267  0.0009  1.0000  -11.8204   0.0000   0.2146
  13.100   1.4146   0.01499   0.01098   0.0270  0.0009  1.0000  -12.0109   0.0000   0.2143
  13.200   1.4225   0.01515   0.01115   0.0274  0.0009  1.0000  -12.2015   0.0000   0.2139
  13.300   1.4304   0.01532   0.01132   0.0278  0.0009  1.0000  -12.3921   0.0000   0.2136
  13.400   1.4381   0.01549   0.01150   0.0283  0.0009  1.0000  -12.5827   0.0000   0.2132
  13.500   1.4457   0.01567   0.01168   0.0287  0.0009  1.0000  -12.7731   0.0000   0.2128
  13.600   1.4531   0.01584   0.01186   0.0292  0.0008  1.0000  -12.9632   0.0000   0.2124
  13.700   1.4604   0.01602   0.01205   0.0297  0.0008  1.0000  -13.1528   0.0000   0.2120
  13.800   1.4675   0.01621   0.01224   0.0302  0.0008  1.0000  -13.3418   0.0000   0.2116
  13.900   1.4744   0.01639   0.01243   0.0307  0.0008  1.0000  -13.5301   0.0000   0.2112
  14.000   1.4812   0.01658   0.01263   0.0312  0.0008  1.0000  -13.7176   0.0000   0.2107
  14.100   1.4878   0.01678   0.01283   0.0318  0.0008  1.0000  -13.9045   0.0000   0.2102
  14.200   1.4942   0.01698   0.01304   0.0323  0.0008  1.0000  -14.0909   0.0000   0.2098
  14.300   1.5006   0.01718   0.01325   0.0329  0.0008  1.0000  -14.2775   0.0000   0.2093
  14.400   1.5071   0.01739   0.01347   0.0334  0.0008  1.0000  -14.4653   0.0000   0.2089
  14.500   1.5136   0.01761   0.01370   0.0339  0.0008  1.0000  -14.6549   0.0000   0.2085
  14.600   1.5201   0.01784   0.01393   0.0344  0.0008  1.0000  -14.8457   0.0000   0.2081
  14.700   1.5266   0.01808   0.01418   0.0348  0.0008  1.0000  -15.0364   0.0000   0.2077
  14.800   1.5329   0.01833   0.01444   0.0353  0.0008  1.0000  -15.2258   0.0000   0.2073
  14.900   1.5388   0.01858   0.01470   0.0358  0.0008  1.0000  -15.4126   0.0000   0.2069
  15.000   1.5444   0.01884   0.01498   0.0363  0.0008  1.0000  -15.5957   0.0000   0.2064
  15.100   1.5499   0.01913   0.01527   0.0368  0.0008  1.0000  -15.7783   0.0000   0.2060
  15.200   1.5503   0.01942   0.01557   0.0382  0.0008  1.0000  -15.9024   0.0000   0.2049
  15.300   1.5477   0.01970   0.01588   0.0401  0.0008  1.0000  -15.9918   0.0000   0.2035
  15.400   1.5479   0.02002   0.01621   0.0414  0.0008  1.0000  -16.1135   0.0000   0.2025
  15.500   1.5477   0.02040   0.01662   0.0425  0.0008  1.0000  -16.2292   0.0000   0.2016
  15.600   1.5469   0.02086   0.01710   0.0435  0.0007  1.0000  -16.3358   0.0000   0.2007
  15.700   1.5457   0.02144   0.01770   0.0442  0.0007  1.0000  -16.4339   0.0000   0.2000
  15.800   1.5438   0.02215   0.01844   0.0447  0.0007  1.0000  -16.5212   0.0000   0.1995
  15.900   1.5414   0.02305   0.01937   0.0448  0.0007  1.0000  -16.5976   0.0000   0.1992
  16.000   1.5391   0.02408   0.02044   0.0445  0.0007  1.0000  -16.6713   0.0000   0.1991
  16.100   1.5372   0.02521   0.02160   0.0440  0.0007  1.0000  -16.7491   0.0000   0.1992
  16.200   1.5356   0.02639   0.02281   0.0435  0.0007  1.0000  -16.8284   0.0000   0.1992
  16.300   1.5337   0.02761   0.02406   0.0430  0.0007  1.0000  -16.9050   0.0000   0.1993
  16.400   1.5315   0.02887   0.02535   0.0425  0.0007  1.0000  -16.9760   0.0000   0.1993
  16.500   1.5285   0.03022   0.02672   0.0420  0.0007  1.0000  -17.0368   0.0000   0.1994
  16.600   1.5251   0.03161   0.02815   0.0416  0.0007  1.0000  -17.0904   0.0000   0.1994
  16.700   1.5209   0.03309   0.02967   0.0410  0.0007  1.0000  -17.1320   0.0000   0.1994
  16.800   1.5159   0.03468   0.03128   0.0404  0.0007  1.0000  -17.1610   0.0000   0.1995
  16.900   1.5103   0.03631   0.03295   0.0398  0.0007  1.0000  -17.1812   0.0000   0.1995
  17.000   1.5037   0.03809   0.03476   0.0392  0.0007  1.0000  -17.1858   0.0000   0.1996
  17.100   1.4963   0.04000   0.03671   0.0384  0.0007  1.0000  -17.1766   0.0000   0.1998
  17.200   1.4885   0.04198   0.03873   0.0376  0.0007  1.0000  -17.1601   0.0000   0.1999
  17.300   1.4799   0.04407   0.04086   0.0368  0.0007  1.0000  -17.1308   0.0000   0.2001
  17.400   1.4700   0.04637   0.04321   0.0358  0.0007  1.0000  -17.0787   0.0000   0.2004
  17.500   1.4592   0.04877   0.04565   0.0348  0.0007  1.0000  -17.0133   0.0000   0.2006
  17.600   1.4481   0.05123   0.04816   0.0337  0.0007  1.0000  -16.9392   0.0000   0.2010
  17.700   1.4364   0.05381   0.05078   0.0326  0.0007  1.0000  -16.8554   0.0000   0.2013
  17.800   1.4236   0.05657   0.05359   0.0313  0.0007  1.0000  -16.7516   0.0000   0.2018
  17.900   1.4097   0.05955   0.05662   0.0299  0.0007  1.0000  -16.6275   0.0000   0.2023
  18.000   1.3957   0.06259   0.05971   0.0284  0.0007  1.0000  -16.4989   0.0000   0.2029
  18.100   1.3816   0.06568   0.06285   0.0269  0.0007  1.0000  -16.3669   0.0000   0.2036
  18.200   1.3677   0.06885   0.06606   0.0254  0.0007  1.0000  -16.2325   0.0000   0.2043
  18.300   1.3538   0.07204   0.06930   0.0238  0.0007  1.0000  -16.0974   0.0000   0.2050
  18.400   1.3409   0.07511   0.07242   0.0223  0.0007  1.0000  -15.9758   0.0000   0.2058
  18.500   1.3283   0.07817   0.07552   0.0207  0.0007  1.0000  -15.8550   0.0000   0.2066
  18.600   1.3139   0.08156   0.07896   0.0190  0.0007  1.0000  -15.7026   0.0000   0.2075
  18.700   1.2999   0.08496   0.08240   0.0172  0.0007  1.0000  -15.5523   0.0000   0.2085
  18.800   1.2879   0.08807   0.08556   0.0156  0.0007  1.0000  -15.4330   0.0000   0.2094
  18.900   1.2777   0.09089   0.08842   0.0142  0.0007  1.0000  -15.3425   0.0000   0.2102
  19.000   1.2646   0.09424   0.09181   0.0124  0.0007  1.0000  -15.1977   0.0000   0.2113
  19.100   1.2575   0.09665   0.09425   0.0112  0.0007  1.0000  -15.1545   0.0000   0.2120
  19.200   1.2451   0.09996   0.09760   0.0094  0.0007  1.0000  -15.0154   0.0000   0.2132
  19.300   1.2391   0.10222   0.09989   0.0082  0.0007  1.0000  -14.9861   0.0000   0.2139
  19.400   1.2274   0.10544   0.10314   0.0064  0.0007  1.0000  -14.8535   0.0000   0.2151
  19.500   1.2222   0.10759   0.10532   0.0052  0.0007  1.0000  -14.8350   0.0000   0.2158
  19.600   1.2119   0.11065   0.10841   0.0035  0.0007  1.0000  -14.7200   0.0000   0.2170
  19.700   1.2070   0.11279   0.11058   0.0023  0.0007  1.0000  -14.7018   0.0000   0.2178
  19.800   1.2028   0.11481   0.11262   0.0012  0.0007  1.0000  -14.6955   0.0000   0.2185
  19.900   1.1934   0.11774   0.11558  -0.0005  0.0007  1.0000  -14.5878   0.0000   0.2197
  20.000   1.1899   0.11965   0.11751  -0.0016  0.0007  1.0000  -14.5910   0.0000   0.2204
  20.100   1.1863   0.12157   0.11945  -0.0027  0.0007  1.0000  -14.5916   0.0000   0.2211
  20.200   1.1780   0.12436   0.12227  -0.0043  0.0007  1.0000  -14.4970   0.0000   0.2224
  20.300   1.1751   0.12619   0.12412  -0.0054  0.0007  1.0000  -14.5066   0.0000   0.2231
  20.400   1.1728   0.12791   0.12585  -0.0064  0.0007  1.0000  -14.5270   0.0000   0.2238
  20.500   1.1656   0.13052   0.12849  -0.0080  0.0007  1.0000  -14.4466   0.0000   0.2250
  20.600   1.1624   0.13239   0.13039  -0.0091  0.0007  1.0000  -14.4461   0.0000   0.2258
  20.700   1.1606   0.13402   0.13203  -0.0101  0.0007  1.0000  -14.4725   0.0000   0.2264
  20.800   1.1589   0.13565   0.13367  -0.0111  0.0007  1.0000  -14.4992   0.0000   0.2271
  20.900   1.1526   0.13813   0.13618  -0.0127  0.0007  1.0000  -14.4276   0.0000   0.2283
  21.000   1.1501   0.13991   0.13797  -0.0138  0.0007  1.0000  -14.4348   0.0000   0.2291
  21.100   1.1488   0.14146   0.13954  -0.0148  0.0007  1.0000  -14.4661   0.0000   0.2297
  21.200   1.1476   0.14299   0.14108  -0.0157  0.0007  1.0000  -14.4997   0.0000   0.2304
  21.300   1.1464   0.14453   0.14263  -0.0167  0.0007  1.0000  -14.5306   0.0000   0.2310
  21.400   1.1402   0.14700   0.14513  -0.0183  0.0007  1.0000  -14.4525   0.0000   0.2324
  21.500   1.1388   0.14858   0.14673  -0.0194  0.0007  1.0000  -14.4760   0.0000   0.2331
  21.600   1.1379   0.15005   0.14821  -0.0203  0.0007  1.0000  -14.5123   0.0000   0.2337
  21.700   1.1374   0.15146   0.14963  -0.0212  0.0006  1.0000  -14.5546   0.0000   0.2343
  21.800   1.1367   0.15290   0.15108  -0.0222  0.0006  1.0000  -14.5926   0.0000   0.2349
  21.900   1.1314   0.15524   0.15345  -0.0238  0.0006  1.0000  -14.5219   0.0000   0.2363
  22.000   1.1299   0.15685   0.15507  -0.0249  0.0006  1.0000  -14.5382   0.0000   0.2370
  22.100   1.1296   0.15822   0.15645  -0.0258  0.0006  1.0000  -14.5805   0.0000   0.2376
  22.200   1.1294   0.15957   0.15781  -0.0267  0.0006  1.0000  -14.6258   0.0000   0.2382
  22.300   1.1291   0.16092   0.15917  -0.0276  0.0006  1.0000  -14.6684   0.0000   0.2388
  22.400   1.1286   0.16233   0.16059  -0.0286  0.0006  1.0000  -14.7042   0.0000   0.2395
  22.500   1.1233   0.16468   0.16298  -0.0303  0.0006  1.0000  -14.6228   0.0000   0.2409
  22.600   1.1226   0.16613   0.16443  -0.0313  0.0006  1.0000  -14.6520   0.0000   0.2416
  22.700   1.1225   0.16745   0.16576  -0.0322  0.0006  1.0000  -14.6951   0.0000   0.2422
  22.800   1.1225   0.16875   0.16707  -0.0331  0.0006  1.0000  -14.7407   0.0000   0.2428
  22.900   1.1225   0.17005   0.16839  -0.0340  0.0006  1.0000  -14.7842   0.0000   0.2434
  23.000   1.1223   0.17140   0.16974  -0.0350  0.0006  1.0000  -14.8219   0.0000   0.2440
  23.100   1.1183   0.17352   0.17189  -0.0366  0.0006  1.0000  -14.7605   0.0000   0.2453
  23.200   1.1170   0.17509   0.17347  -0.0377  0.0006  1.0000  -14.7680   0.0000   0.2462
  23.300   1.1170   0.17640   0.17480  -0.0387  0.0006  1.0000  -14.8066   0.0000   0.2468
  23.400   1.1171   0.17767   0.17607  -0.0396  0.0006  1.0000  -14.8504   0.0000   0.2474
  23.500   1.1173   0.17893   0.17734  -0.0405  0.0006  1.0000  -14.8936   0.0000   0.2480
  23.600   1.1173   0.18022   0.17864  -0.0415  0.0006  1.0000  -14.9328   0.0000   0.2486
  23.700   1.1172   0.18154   0.17998  -0.0425  0.0006  1.0000  -14.9660   0.0000   0.2493
  23.800   1.1129   0.18373   0.18219  -0.0441  0.0006  1.0000  -14.8853   0.0000   0.2507
  23.900   1.1124   0.18515   0.18362  -0.0451  0.0006  1.0000  -14.9042   0.0000   0.2515
  24.000   1.1125   0.18642   0.18490  -0.0461  0.0006  1.0000  -14.9417   0.0000   0.2521
  24.100   1.1128   0.18766   0.18615  -0.0471  0.0006  1.0000  -14.9826   0.0000   0.2527
  24.200   1.1131   0.18890   0.18740  -0.0480  0.0005  1.0000  -15.0223   0.0000   0.2534
  24.300   1.1132   0.19015   0.18866  -0.0490  0.0005  1.0000  -15.0590   0.0000   0.2540
  24.400   1.1133   0.19144   0.18996  -0.0500  0.0005  1.0000  -15.0905   0.0000   0.2546
  24.500   1.1092   0.19363   0.19218  -0.0516  0.0005  1.0000  -14.9975   0.0000   0.2562
  24.600   1.1088   0.19500   0.19356  -0.0527  0.0005  1.0000  -15.0142   0.0000   0.2569
  24.700   1.1090   0.19626   0.19483  -0.0537  0.0005  1.0000  -15.0468   0.0000   0.2576
  24.800   1.1093   0.19748   0.19606  -0.0547  0.0005  1.0000  -15.0818   0.0000   0.2582
  24.900   1.1095   0.19871   0.19730  -0.0556  0.0005  1.0000  -15.1157   0.0000   0.2588
  25.000   1.1098   0.19995   0.19855  -0.0566  0.0005  1.0000  -15.1474   0.0000   0.2595


