xflr5 v6.47

 Calculated polar for: Wing2

 1 1 Reynolds number fixed          Mach number fixed         

 xtrf =   1.000 (top)        1.000 (bottom)
 Mach =   0.000     Re =     7.000 e 6     Ncrit =   9.000

  alpha     CL        CD       CDp       Cm    Top Xtr Bot Xtr   Cpmin    Chinge    XCp    
 ------- -------- --------- --------- -------- ------- ------- -------- --------- ---------
 -23.600  -0.8733   0.23021   0.22950   0.0798  0.9995  0.0014  -8.2971   0.0000   0.3153
 -23.500  -0.8721   0.22877   0.22806   0.0789  0.9995  0.0014  -8.3665   0.0000   0.3144
 -23.400  -0.8791   0.22440   0.22367   0.0767  0.9996  0.0016  -9.0141   0.0000   0.3107
 -23.300  -0.8779   0.22301   0.22228   0.0758  0.9996  0.0016  -9.0606   0.0000   0.3099
 -23.200  -0.8766   0.22166   0.22092   0.0748  0.9996  0.0016  -9.0985   0.0000   0.3091
 -23.100  -0.8753   0.22030   0.21956   0.0739  0.9996  0.0017  -9.1359   0.0000   0.3083
 -23.000  -0.8817   0.21652   0.21576   0.0719  0.9996  0.0017  -9.6368   0.0000   0.3050
 -22.900  -0.8811   0.21500   0.21424   0.0709  0.9996  0.0017  -9.6981   0.0000   0.3040
 -22.800  -0.8802   0.21359   0.21282   0.0699  0.9996  0.0018  -9.7384   0.0000   0.3032
 -22.700  -0.8794   0.21219   0.21141   0.0690  0.9996  0.0018  -9.7791   0.0000   0.3023
 -22.600  -0.8852   0.20886   0.20807   0.0671  0.9996  0.0018  -10.1705   0.0000   0.2994
 -22.500  -0.8854   0.20718   0.20638   0.0660  0.9996  0.0018  -10.2546   0.0000   0.2983
 -22.400  -0.8851   0.20570   0.20489   0.0651  0.9996  0.0019  -10.3020   0.0000   0.2973
 -22.300  -0.8847   0.20424   0.20343   0.0642  0.9996  0.0019  -10.3435   0.0000   0.2964
 -22.200  -0.8846   0.20269   0.20187   0.0632  0.9996  0.0019  -10.3987   0.0000   0.2954
 -22.100  -0.8912   0.19932   0.19848   0.0612  0.9997  0.0019  -10.7728   0.0000   0.2924
 -22.000  -0.8915   0.19770   0.19685   0.0601  0.9997  0.0019  -10.8358   0.0000   0.2914
 -21.900  -0.8916   0.19614   0.19528   0.0591  0.9997  0.0019  -10.8864   0.0000   0.2903
 -21.800  -0.8922   0.19448   0.19361   0.0581  0.9997  0.0020  -10.9532   0.0000   0.2892
 -21.700  -0.9000   0.19096   0.19006   0.0559  0.9997  0.0020  -11.3308   0.0000   0.2861
 -21.400  -0.8951   0.18017   0.17921   0.0443  1.0000  0.0020  -11.8794   0.0000   0.2735
 -21.300  -0.9034   0.17595   0.17495   0.0411  1.0000  0.0020  -12.2769   0.0000   0.2693
 -21.200  -0.9084   0.17332   0.17230   0.0394  1.0000  0.0020  -12.4726   0.0000   0.2672
 -21.100  -0.9229   0.16864   0.16758   0.0363  1.0000  0.0020  -12.9915   0.0000   0.2631
 -21.000  -0.9406   0.16343   0.16232   0.0329  1.0000  0.0020  -13.5816   0.0000   0.2585
 -20.900  -0.9642   0.15711   0.15595   0.0287  1.0000  0.0020  -14.3293   0.0000   0.2530
 -20.800  -1.0113   0.14637   0.14509   0.0213  1.0000  0.0020  -15.7257   0.0000   0.2439
 -20.700  -1.2186   0.10668   0.10491  -0.0069  1.0000  0.0018  -21.1775   0.0000   0.2161
 -20.600  -1.2949   0.09162   0.08964  -0.0173  1.0000  0.0017  -22.9386   0.0000   0.2084
 -20.500  -1.3347   0.08326   0.08116  -0.0230  1.0000  0.0017  -23.7766   0.0000   0.2048
 -20.400  -1.3635   0.07706   0.07487  -0.0271  1.0000  0.0017  -24.3351   0.0000   0.2023
 -20.300  -1.3871   0.07189   0.06962  -0.0305  1.0000  0.0016  -24.7620   0.0000   0.2005
 -20.200  -1.4066   0.06754   0.06520  -0.0333  1.0000  0.0016  -25.0863   0.0000   0.1991
 -20.100  -1.4237   0.06370   0.06130  -0.0356  1.0000  0.0016  -25.3488   0.0000   0.1980
 -20.000  -1.4389   0.06027   0.05780  -0.0377  1.0000  0.0016  -25.5644   0.0000   0.1970
 -19.900  -1.4516   0.05727   0.05475  -0.0394  1.0000  0.0016  -25.7227   0.0000   0.1964
 -19.800  -1.4636   0.05446   0.05189  -0.0409  1.0000  0.0016  -25.8585   0.0000   0.1958
 -19.700  -1.4742   0.05193   0.04931  -0.0422  1.0000  0.0016  -25.9623   0.0000   0.1954
 -19.600  -1.4839   0.04959   0.04693  -0.0433  1.0000  0.0016  -26.0431   0.0000   0.1951
 -19.500  -1.4928   0.04742   0.04472  -0.0443  1.0000  0.0016  -26.1055   0.0000   0.1948
 -19.400  -1.5009   0.04543   0.04268  -0.0451  1.0000  0.0016  -26.1478   0.0000   0.1947
 -19.300  -1.5086   0.04356   0.04077  -0.0458  1.0000  0.0016  -26.1777   0.0000   0.1947
 -19.200  -1.5156   0.04183   0.03900  -0.0463  1.0000  0.0016  -26.1911   0.0000   0.1947
 -19.100  -1.5223   0.04020   0.03733  -0.0466  1.0000  0.0016  -26.1954   0.0000   0.1948
 -19.000  -1.5284   0.03871   0.03580  -0.0468  1.0000  0.0016  -26.1871   0.0000   0.1951
 -18.900  -1.5343   0.03732   0.03437  -0.0469  1.0000  0.0016  -26.1700   0.0000   0.1954
 -18.800  -1.5397   0.03604   0.03306  -0.0468  1.0000  0.0016  -26.1413   0.0000   0.1957
 -18.700  -1.5448   0.03485   0.03184  -0.0466  1.0000  0.0017  -26.1056   0.0000   0.1962
 -18.600  -1.5496   0.03375   0.03071  -0.0463  1.0000  0.0017  -26.0616   0.0000   0.1967
 -18.500  -1.5540   0.03273   0.02965  -0.0459  1.0000  0.0017  -26.0094   0.0000   0.1973
 -18.400  -1.5582   0.03176   0.02866  -0.0454  1.0000  0.0017  -25.9505   0.0000   0.1979
 -18.300  -1.5623   0.03085   0.02772  -0.0448  1.0000  0.0017  -25.8886   0.0000   0.1986
 -18.200  -1.5658   0.03002   0.02686  -0.0441  1.0000  0.0017  -25.8157   0.0000   0.1993
 -18.100  -1.5688   0.02925   0.02606  -0.0433  1.0000  0.0017  -25.7336   0.0000   0.2000
 -18.000  -1.5723   0.02849   0.02528  -0.0425  1.0000  0.0017  -25.6575   0.0000   0.2008
 -17.900  -1.5746   0.02782   0.02458  -0.0416  1.0000  0.0017  -25.5612   0.0000   0.2016
 -17.800  -1.5777   0.02716   0.02390  -0.0406  1.0000  0.0017  -25.4751   0.0000   0.2025
 -17.700  -1.5794   0.02658   0.02329  -0.0396  1.0000  0.0017  -25.3687   0.0000   0.2034
 -17.600  -1.5822   0.02600   0.02268  -0.0385  1.0000  0.0017  -25.2760   0.0000   0.2043
 -17.500  -1.5833   0.02548   0.02214  -0.0374  1.0000  0.0017  -25.1575   0.0000   0.2052
 -17.400  -1.5855   0.02496   0.02160  -0.0362  1.0000  0.0018  -25.0546   0.0000   0.2062
 -17.300  -1.5866   0.02449   0.02110  -0.0350  1.0000  0.0018  -24.9347   0.0000   0.2071
 -17.200  -1.5873   0.02405   0.02064  -0.0338  1.0000  0.0018  -24.8093   0.0000   0.2081
 -17.100  -1.5892   0.02362   0.02018  -0.0324  1.0000  0.0018  -24.6994   0.0000   0.2091
 -17.000  -1.5893   0.02323   0.01977  -0.0311  1.0000  0.0018  -24.5637   0.0000   0.2101
 -16.900  -1.5894   0.02287   0.01939  -0.0298  1.0000  0.0018  -24.4263   0.0000   0.2111
 -16.800  -1.5905   0.02252   0.01902  -0.0283  1.0000  0.0018  -24.3044   0.0000   0.2122
 -16.700  -1.5910   0.02218   0.01866  -0.0269  1.0000  0.0018  -24.1721   0.0000   0.2133
 -16.600  -1.5902   0.02186   0.01832  -0.0256  1.0000  0.0018  -24.0217   0.0000   0.2143
 -16.500  -1.5900   0.02156   0.01799  -0.0241  1.0000  0.0018  -23.8793   0.0000   0.2154
 -16.400  -1.5910   0.02126   0.01767  -0.0224  1.0000  0.0019  -23.7538   0.0000   0.2166
 -16.300  -1.5910   0.02098   0.01738  -0.0208  1.0000  0.0019  -23.6141   0.0000   0.2178
 -16.200  -1.5893   0.02072   0.01710  -0.0195  1.0000  0.0019  -23.4502   0.0000   0.2188
 -16.100  -1.5878   0.02048   0.01684  -0.0180  1.0000  0.0019  -23.2885   0.0000   0.2198
 -16.000  -1.5866   0.02024   0.01659  -0.0165  1.0000  0.0019  -23.1327   0.0000   0.2209
 -15.900  -1.5865   0.02003   0.01635  -0.0147  1.0000  0.0019  -22.9904   0.0000   0.2222
 -15.800  -1.5888   0.01985   0.01615  -0.0125  1.0000  0.0019  -22.8800   0.0000   0.2238
 -15.700  -1.5915   0.01968   0.01596  -0.0101  1.0000  0.0019  -22.7760   0.0000   0.2255
 -15.600  -1.5879   0.01946   0.01573  -0.0089  1.0000  0.0019  -22.5873   0.0000   0.2263
 -15.500  -1.5832   0.01923   0.01549  -0.0079  1.0000  0.0019  -22.3852   0.0000   0.2271
 -15.400  -1.5782   0.01901   0.01525  -0.0070  1.0000  0.0020  -22.1789   0.0000   0.2279
 -15.300  -1.5729   0.01879   0.01502  -0.0061  1.0000  0.0020  -21.9688   0.0000   0.2286
 -15.200  -1.5672   0.01857   0.01479  -0.0053  1.0000  0.0020  -21.7555   0.0000   0.2293
 -15.100  -1.5613   0.01836   0.01456  -0.0045  1.0000  0.0020  -21.5394   0.0000   0.2299
 -15.000  -1.5551   0.01815   0.01434  -0.0037  1.0000  0.0020  -21.3209   0.0000   0.2306
 -14.900  -1.5487   0.01795   0.01412  -0.0030  1.0000  0.0020  -21.1003   0.0000   0.2312
 -14.800  -1.5421   0.01774   0.01390  -0.0023  1.0000  0.0020  -20.8780   0.0000   0.2318
 -14.700  -1.5352   0.01754   0.01369  -0.0016  1.0000  0.0020  -20.6541   0.0000   0.2324
 -14.600  -1.5283   0.01735   0.01348  -0.0009  1.0000  0.0020  -20.4288   0.0000   0.2330
 -14.500  -1.5211   0.01715   0.01328  -0.0003  1.0000  0.0020  -20.2025   0.0000   0.2336
 -14.400  -1.5138   0.01696   0.01308   0.0003  1.0000  0.0021  -19.9751   0.0000   0.2342
 -14.300  -1.5063   0.01678   0.01288   0.0009  1.0000  0.0021  -19.7470   0.0000   0.2347
 -14.200  -1.4987   0.01659   0.01268   0.0014  1.0000  0.0021  -19.5183   0.0000   0.2353
 -14.100  -1.4910   0.01641   0.01249   0.0020  1.0000  0.0021  -19.2890   0.0000   0.2358
 -14.000  -1.4831   0.01623   0.01230   0.0025  1.0000  0.0021  -19.0594   0.0000   0.2363
 -13.900  -1.4751   0.01605   0.01211   0.0030  1.0000  0.0021  -18.8295   0.0000   0.2368
 -13.800  -1.4671   0.01588   0.01193   0.0035  1.0000  0.0021  -18.5994   0.0000   0.2373
 -13.700  -1.4589   0.01570   0.01175   0.0040  1.0000  0.0021  -18.3693   0.0000   0.2378
 -13.600  -1.4506   0.01554   0.01157   0.0045  1.0000  0.0021  -18.1393   0.0000   0.2383
 -13.500  -1.4422   0.01537   0.01139   0.0049  1.0000  0.0021  -17.9094   0.0000   0.2388
 -13.400  -1.4337   0.01520   0.01122   0.0054  1.0000  0.0021  -17.6796   0.0000   0.2393
 -13.300  -1.4252   0.01504   0.01105   0.0058  1.0000  0.0021  -17.4502   0.0000   0.2398
 -13.200  -1.4165   0.01488   0.01088   0.0062  1.0000  0.0021  -17.2211   0.0000   0.2403
 -13.100  -1.4080   0.01470   0.01069   0.0067  1.0000  0.0021  -16.9973   0.0000   0.2408
 -13.000  -1.3997   0.01449   0.01047   0.0072  1.0000  0.0022  -16.7798   0.0000   0.2413
 -12.900  -1.3912   0.01430   0.01026   0.0076  1.0000  0.0022  -16.5613   0.0000   0.2418
 -12.800  -1.3826   0.01411   0.01006   0.0080  1.0000  0.0023  -16.3421   0.0000   0.2423
 -12.700  -1.3739   0.01393   0.00986   0.0085  1.0000  0.0023  -16.1225   0.0000   0.2428
 -12.600  -1.3651   0.01375   0.00967   0.0089  1.0000  0.0024  -15.9028   0.0000   0.2433
 -12.500  -1.3562   0.01357   0.00949   0.0093  1.0000  0.0024  -15.6830   0.0000   0.2438
 -12.400  -1.3473   0.01340   0.00931   0.0096  1.0000  0.0025  -15.4633   0.0000   0.2442
 -12.300  -1.3382   0.01324   0.00914   0.0100  1.0000  0.0026  -15.2437   0.0000   0.2447
 -12.200  -1.3290   0.01308   0.00897   0.0104  1.0000  0.0026  -15.0242   0.0000   0.2452
 -12.100  -1.3198   0.01292   0.00880   0.0107  1.0000  0.0027  -14.8052   0.0000   0.2456
 -12.000  -1.3105   0.01276   0.00864   0.0111  1.0000  0.0027  -14.5866   0.0000   0.2461
 -11.900  -1.3012   0.01261   0.00849   0.0114  1.0000  0.0028  -14.3687   0.0000   0.2466
 -11.800  -1.2918   0.01246   0.00833   0.0117  1.0000  0.0028  -14.1514   0.0000   0.2470
 -11.700  -1.2823   0.01232   0.00818   0.0120  1.0000  0.0029  -13.9348   0.0000   0.2475
 -11.600  -1.2727   0.01218   0.00804   0.0123  1.0000  0.0029  -13.7187   0.0000   0.2479
 -11.500  -1.2631   0.01204   0.00790   0.0126  1.0000  0.0029  -13.5035   0.0000   0.2484
 -11.400  -1.2534   0.01190   0.00776   0.0129  1.0000  0.0030  -13.2891   0.0000   0.2488
 -11.300  -1.2437   0.01177   0.00762   0.0132  1.0000  0.0030  -13.0757   0.0000   0.2492
 -11.200  -1.2339   0.01164   0.00749   0.0135  1.0000  0.0031  -12.8633   0.0000   0.2497
 -11.100  -1.2241   0.01152   0.00736   0.0137  1.0000  0.0031  -12.6518   0.0000   0.2501
 -11.000  -1.2142   0.01139   0.00723   0.0140  1.0000  0.0031  -12.4414   0.0000   0.2506
 -10.900  -1.2043   0.01127   0.00711   0.0142  1.0000  0.0032  -12.2320   0.0000   0.2510
 -10.800  -1.1943   0.01115   0.00698   0.0145  1.0000  0.0032  -12.0237   0.0000   0.2514
 -10.700  -1.1843   0.01103   0.00686   0.0147  1.0000  0.0032  -11.8165   0.0000   0.2519
 -10.600  -1.1742   0.01092   0.00675   0.0149  1.0000  0.0033  -11.6104   0.0000   0.2523
 -10.500  -1.1641   0.01081   0.00663   0.0152  1.0000  0.0033  -11.4055   0.0000   0.2527
 -10.400  -1.1540   0.01070   0.00652   0.0154  1.0000  0.0033  -11.2018   0.0000   0.2532
 -10.300  -1.1438   0.01059   0.00641   0.0156  1.0000  0.0033  -10.9993   0.0000   0.2536
 -10.200  -1.1350   0.01089   0.00628   0.0161  0.7896  0.0033  -10.8113   0.0000   0.2543
 -10.100  -1.1251   0.01087   0.00616   0.0164  0.7453  0.0033  -10.6151   0.0000   0.2548
 -10.000  -1.1150   0.01082   0.00605   0.0166  0.7222  0.0033  -10.4179   0.0000   0.2552
  -9.900  -1.1048   0.01074   0.00594   0.0168  0.7070  0.0034  -10.2212   0.0000   0.2556
  -9.800  -1.0947   0.01064   0.00580   0.0170  0.6949  0.0035  -10.0315   0.0000   0.2561
  -9.700  -1.0846   0.01053   0.00567   0.0172  0.6862  0.0036  -9.8421   0.0000   0.2566
  -9.600  -1.0744   0.01043   0.00554   0.0175  0.6779  0.0038  -9.6532   0.0000   0.2571
  -9.500  -1.0642   0.01032   0.00542   0.0177  0.6720  0.0039  -9.4646   0.0000   0.2575
  -9.400  -1.0539   0.01023   0.00531   0.0179  0.6651  0.0040  -9.2770   0.0000   0.2580
  -9.300  -1.0436   0.01012   0.00519   0.0181  0.6603  0.0042  -9.0916   0.0000   0.2585
  -9.200  -1.0332   0.01003   0.00509   0.0182  0.6557  0.0043  -8.9167   0.0000   0.2589
  -9.100  -1.0228   0.00994   0.00499   0.0184  0.6506  0.0044  -8.7427   0.0000   0.2594
  -9.000  -1.0123   0.00985   0.00488   0.0186  0.6462  0.0045  -8.5697   0.0000   0.2599
  -8.900  -1.0018   0.00976   0.00479   0.0188  0.6428  0.0046  -8.3978   0.0000   0.2604
  -8.800  -0.9912   0.00967   0.00469   0.0189  0.6389  0.0046  -8.2271   0.0000   0.2608
  -8.700  -0.9807   0.00960   0.00460   0.0191  0.6344  0.0047  -8.0577   0.0000   0.2613
  -8.600  -0.9700   0.00951   0.00451   0.0192  0.6310  0.0048  -7.8893   0.0000   0.2618
  -8.500  -0.9594   0.00944   0.00443   0.0194  0.6280  0.0048  -7.7222   0.0000   0.2623
  -8.400  -0.9487   0.00936   0.00434   0.0195  0.6244  0.0049  -7.5562   0.0000   0.2627
  -8.300  -0.9380   0.00929   0.00426   0.0197  0.6202  0.0049  -7.3917   0.0000   0.2632
  -8.200  -0.9273   0.00922   0.00418   0.0198  0.6170  0.0049  -7.2283   0.0000   0.2637
  -8.100  -0.9166   0.00913   0.00409   0.0200  0.6141  0.0051  -7.0690   0.0000   0.2642
  -8.000  -0.9060   0.00904   0.00399   0.0201  0.6105  0.0054  -6.9117   0.0000   0.2648
  -7.900  -0.8953   0.00896   0.00389   0.0203  0.6064  0.0056  -6.7551   0.0000   0.2653
  -7.800  -0.8846   0.00888   0.00380   0.0204  0.6032  0.0059  -6.5993   0.0000   0.2658
  -7.700  -0.8739   0.00879   0.00372   0.0205  0.6001  0.0061  -6.4444   0.0000   0.2664
  -7.600  -0.8631   0.00872   0.00364   0.0207  0.5961  0.0063  -6.2908   0.0000   0.2669
  -7.500  -0.8523   0.00865   0.00356   0.0208  0.5916  0.0064  -6.1484   0.0000   0.2675
  -7.400  -0.8415   0.00858   0.00348   0.0209  0.5886  0.0066  -6.0069   0.0000   0.2680
  -7.300  -0.8306   0.00852   0.00341   0.0210  0.5848  0.0067  -5.8665   0.0000   0.2686
  -7.200  -0.8197   0.00846   0.00334   0.0211  0.5800  0.0068  -5.7273   0.0000   0.2691
  -7.100  -0.8088   0.00840   0.00328   0.0213  0.5759  0.0068  -5.5892   0.0000   0.2697
  -7.000  -0.7979   0.00833   0.00320   0.0214  0.5720  0.0072  -5.4546   0.0000   0.2703
  -6.900  -0.7871   0.00826   0.00311   0.0215  0.5671  0.0077  -5.3212   0.0000   0.2709
  -6.800  -0.7762   0.00819   0.00303   0.0216  0.5626  0.0081  -5.1884   0.0000   0.2715
  -6.700  -0.7653   0.00812   0.00296   0.0217  0.5581  0.0085  -5.0564   0.0000   0.2722
  -6.600  -0.7544   0.00806   0.00290   0.0218  0.5527  0.0088  -4.9254   0.0000   0.2728
  -6.500  -0.7434   0.00801   0.00283   0.0219  0.5484  0.0090  -4.7953   0.0000   0.2734
  -6.400  -0.7324   0.00796   0.00278   0.0220  0.5436  0.0091  -4.6663   0.0000   0.2741
  -6.300  -0.7215   0.00790   0.00270   0.0221  0.5376  0.0098  -4.5407   0.0000   0.2748
  -6.200  -0.7105   0.00782   0.00263   0.0222  0.5334  0.0105  -4.4159   0.0000   0.2755
  -6.100  -0.6996   0.00777   0.00256   0.0223  0.5282  0.0110  -4.2920   0.0000   0.2762
  -6.000  -0.6885   0.00772   0.00250   0.0224  0.5227  0.0115  -4.1689   0.0000   0.2769
  -5.900  -0.6774   0.00767   0.00245   0.0225  0.5181  0.0117  -4.0467   0.0000   0.2776
  -5.800  -0.6664   0.00762   0.00239   0.0226  0.5120  0.0126  -3.9274   0.0000   0.2784
  -5.700  -0.6555   0.00755   0.00232   0.0227  0.5073  0.0135  -3.8092   0.0000   0.2792
  -5.600  -0.6444   0.00750   0.00226   0.0228  0.5020  0.0142  -3.7008   0.0000   0.2800
  -5.500  -0.6333   0.00746   0.00221   0.0229  0.4959  0.0147  -3.5935   0.0000   0.2808
  -5.400  -0.6222   0.00741   0.00215   0.0229  0.4915  0.0154  -3.4876   0.0000   0.2817
  -5.300  -0.6112   0.00736   0.00209   0.0230  0.4853  0.0166  -3.3835   0.0000   0.2825
  -5.200  -0.6001   0.00731   0.00204   0.0231  0.4802  0.0175  -3.2800   0.0000   0.2834
  -5.100  -0.5889   0.00727   0.00199   0.0232  0.4750  0.0181  -3.1772   0.0000   0.2843
  -5.000  -0.5778   0.00723   0.00194   0.0232  0.4686  0.0195  -3.0763   0.0000   0.2853
  -4.900  -0.5667   0.00717   0.00188   0.0233  0.4641  0.0209  -2.9765   0.0000   0.2863
  -4.800  -0.5556   0.00713   0.00184   0.0234  0.4579  0.0220  -2.8775   0.0000   0.2873
  -4.700  -0.5445   0.00708   0.00178   0.0235  0.4528  0.0239  -2.7801   0.0000   0.2884
  -4.600  -0.5333   0.00703   0.00173   0.0235  0.4476  0.0255  -2.6838   0.0000   0.2895
  -4.500  -0.5221   0.00700   0.00169   0.0236  0.4410  0.0266  -2.5882   0.0000   0.2906
  -4.400  -0.5110   0.00695   0.00164   0.0237  0.4366  0.0290  -2.4944   0.0000   0.2918
  -4.300  -0.4999   0.00691   0.00160   0.0237  0.4303  0.0306  -2.4015   0.0000   0.2930
  -4.200  -0.4887   0.00687   0.00155   0.0238  0.4252  0.0327  -2.3148   0.0000   0.2943
  -4.100  -0.4775   0.00682   0.00151   0.0239  0.4201  0.0353  -2.2322   0.0000   0.2956
  -4.000  -0.4663   0.00679   0.00147   0.0239  0.4136  0.0378  -2.1503   0.0000   0.2970
  -3.900  -0.4552   0.00674   0.00142   0.0240  0.4095  0.0410  -2.0697   0.0000   0.2984
  -3.800  -0.4439   0.00671   0.00138   0.0240  0.4032  0.0434  -1.9897   0.0000   0.2999
  -3.700  -0.4328   0.00666   0.00134   0.0241  0.3981  0.0467  -1.9111   0.0000   0.3015
  -3.600  -0.4215   0.00663   0.00131   0.0241  0.3931  0.0491  -1.8330   0.0000   0.3032
  -3.500  -0.4104   0.00659   0.00127   0.0242  0.3869  0.0535  -1.7635   0.0000   0.3049
  -3.400  -0.3991   0.00655   0.00123   0.0243  0.3830  0.0572  -1.6942   0.0000   0.3068
  -3.300  -0.3879   0.00651   0.00120   0.0243  0.3776  0.0611  -1.6261   0.0000   0.3087
  -3.200  -0.3766   0.00648   0.00117   0.0243  0.3717  0.0645  -1.5585   0.0000   0.3108
  -3.100  -0.3654   0.00644   0.00113   0.0244  0.3674  0.0688  -1.4919   0.0000   0.3129
  -3.000  -0.3542   0.00641   0.00110   0.0244  0.3616  0.0731  -1.4308   0.0000   0.3152
  -2.900  -0.3429   0.00638   0.00107   0.0245  0.3574  0.0772  -1.3716   0.0000   0.3177
  -2.800  -0.3316   0.00635   0.00105   0.0245  0.3533  0.0807  -1.3128   0.0000   0.3203
  -2.700  -0.3203   0.00632   0.00102   0.0246  0.3476  0.0856  -1.2555   0.0000   0.3231
  -2.600  -0.3090   0.00629   0.00100   0.0246  0.3434  0.0897  -1.2031   0.0000   0.3260
  -2.500  -0.2977   0.00626   0.00097   0.0246  0.3390  0.0945  -1.1516   0.0000   0.3292
  -2.400  -0.2864   0.00625   0.00095   0.0247  0.3331  0.0987  -1.1009   0.0000   0.3327
  -2.300  -0.2751   0.00620   0.00092   0.0247  0.3298  0.1046  -1.0549   0.0000   0.3364
  -2.200  -0.2638   0.00618   0.00090   0.0247  0.3263  0.1094  -1.0091   0.0000   0.3404
  -2.100  -0.2525   0.00615   0.00088   0.0248  0.3215  0.1155  -0.9662   0.0000   0.3448
  -2.000  -0.2412   0.00612   0.00086   0.0248  0.3175  0.1221  -0.9253   0.0000   0.3496
  -1.800  -0.2186   0.00605   0.00082   0.0249  0.3095  0.1364  -0.8489   0.0000   0.3606
  -1.700  -0.2073   0.00602   0.00080   0.0249  0.3047  0.1443  -0.8130   0.0000   0.3670
  -1.600  -0.1960   0.00599   0.00078   0.0249  0.3020  0.1522  -0.7796   0.0000   0.3742
  -1.500  -0.1848   0.00595   0.00076   0.0249  0.2986  0.1613  -0.7470   0.0000   0.3822
  -1.400  -0.1735   0.00591   0.00074   0.0250  0.2944  0.1721  -0.7169   0.0000   0.3912
  -1.300  -0.1623   0.00586   0.00072   0.0250  0.2911  0.1832  -0.6874   0.0000   0.4015
  -1.200  -0.1510   0.00582   0.00071   0.0250  0.2886  0.1946  -0.6599   0.0000   0.4134
  -1.100  -0.1398   0.00578   0.00069   0.0251  0.2849  0.2068  -0.6330   0.0000   0.4271
  -0.900  -0.1173   0.00569   0.00066   0.0251  0.2773  0.2328  -0.5831   0.0000   0.4623
  -0.800  -0.1061   0.00565   0.00064   0.0252  0.2745  0.2467  -0.5724   0.0000   0.4855
  -0.700  -0.0948   0.00561   0.00063   0.0252  0.2710  0.2607  -0.5867   0.0000   0.5142
  -0.600  -0.0836   0.00557   0.00062   0.0252  0.2669  0.2752  -0.6011   0.0000   0.5505
  -0.500  -0.0723   0.00552   0.00061   0.0253  0.2648  0.2894  -0.6156   0.0000   0.5983
  -0.400  -0.0611   0.00548   0.00060   0.0253  0.2628  0.3034  -0.6301   0.0000   0.6637
  -0.300  -0.0498   0.00544   0.00059   0.0253  0.2599  0.3170  -0.6447   0.0000   0.7588
  -0.200  -0.0385   0.00542   0.00059   0.0253  0.2561  0.3292  -0.6600   0.0000   0.9096
  -0.100  -0.0272   0.00539   0.00058   0.0253  0.2525  0.3407  -0.6756   0.0000   1.1873
   0.000  -0.0158   0.00537   0.00058   0.0253  0.2505  0.3515  -0.6913   0.0000   1.8669
   0.100  -0.0044   0.00534   0.00057   0.0254  0.2476  0.3628  -0.7070   0.0000   6.0076
   0.200   0.0069   0.00533   0.00058   0.0254  0.2440  0.3731  -0.7228   0.0000  -3.4661
   0.300   0.0183   0.00532   0.00058   0.0254  0.2402  0.3824  -0.7387   0.0000  -1.1536
   0.400   0.0297   0.00530   0.00057   0.0254  0.2388  0.3921  -0.7547   0.0000  -0.6159
   0.500   0.0411   0.00528   0.00057   0.0254  0.2369  0.4017  -0.7707   0.0000  -0.3771
   0.600   0.0526   0.00527   0.00058   0.0254  0.2345  0.4084  -0.7869   0.0000  -0.2411
   0.700   0.0640   0.00527   0.00058   0.0254  0.2315  0.4177  -0.8031   0.0000  -0.1546
   0.800   0.0754   0.00526   0.00059   0.0254  0.2280  0.4264  -0.8203   0.0000  -0.0940
   0.900   0.0868   0.00525   0.00059   0.0254  0.2267  0.4348  -0.8376   0.0000  -0.0491
   1.000   0.0983   0.00523   0.00059   0.0254  0.2250  0.4431  -0.8549   0.0000  -0.0148
   1.100   0.1098   0.00523   0.00060   0.0254  0.2226  0.4501  -0.8723   0.0000   0.0125
   1.200   0.1211   0.00523   0.00061   0.0254  0.2196  0.4596  -0.8897   0.0000   0.0344
   1.300   0.1325   0.00523   0.00062   0.0254  0.2157  0.4680  -0.9072   0.0000   0.0526
   1.400   0.1440   0.00522   0.00062   0.0254  0.2143  0.4773  -0.9248   0.0000   0.0679
   1.500   0.1554   0.00520   0.00063   0.0254  0.2126  0.4875  -0.9424   0.0000   0.0810
   1.600   0.1668   0.00520   0.00064   0.0254  0.2103  0.4974  -0.9602   0.0000   0.0922
   1.700   0.1782   0.00519   0.00065   0.0254  0.2078  0.5080  -0.9779   0.0000   0.1020
   1.800   0.1896   0.00519   0.00066   0.0254  0.2047  0.5196  -0.9957   0.0000   0.1106
   1.900   0.2009   0.00517   0.00067   0.0254  0.2029  0.5323  -1.0135   0.0000   0.1182
   2.000   0.2123   0.00514   0.00067   0.0254  0.2018  0.5456  -1.0323   0.0000   0.1249
   2.100   0.2237   0.00512   0.00068   0.0254  0.2004  0.5598  -1.0513   0.0000   0.1310
   2.300   0.2461   0.00507   0.00070   0.0254  0.1963  0.5950  -1.0894   0.0000   0.1413
   2.400   0.2572   0.00502   0.00072   0.0254  0.1937  0.6201  -1.1083   0.0000   0.1456
   2.500   0.2682   0.00495   0.00073   0.0255  0.1912  0.6510  -1.1273   0.0000   0.1494
   2.600   0.2792   0.00488   0.00074   0.0255  0.1905  0.6809  -1.1464   0.0000   0.1530
   2.700   0.2903   0.00483   0.00075   0.0256  0.1894  0.7071  -1.1656   0.0000   0.1563
   2.800   0.3015   0.00479   0.00076   0.0256  0.1879  0.7278  -1.1850   0.0000   0.1594
   2.900   0.3127   0.00477   0.00078   0.0257  0.1862  0.7449  -1.2045   0.0000   0.1623
   3.000   0.3240   0.00477   0.00080   0.0257  0.1841  0.7579  -1.2241   0.0000   0.1651
   3.100   0.3351   0.00476   0.00082   0.0257  0.1814  0.7725  -1.2436   0.0000   0.1676
   3.200   0.3465   0.00476   0.00084   0.0257  0.1794  0.7818  -1.2635   0.0000   0.1701
   3.300   0.3578   0.00474   0.00085   0.0258  0.1786  0.7944  -1.2834   0.0000   0.1722
   3.400   0.3692   0.00475   0.00087   0.0258  0.1774  0.8016  -1.3034   0.0000   0.1744
   3.500   0.3805   0.00475   0.00090   0.0258  0.1758  0.8111  -1.3235   0.0000   0.1764
   3.600   0.3917   0.00475   0.00092   0.0258  0.1738  0.8209  -1.3435   0.0000   0.1782
   3.700   0.4031   0.00478   0.00094   0.0258  0.1716  0.8272  -1.3637   0.0000   0.1800
   3.800   0.4145   0.00480   0.00097   0.0258  0.1691  0.8318  -1.3840   0.0000   0.1818
   3.900   0.4257   0.00480   0.00099   0.0258  0.1680  0.8418  -1.4043   0.0000   0.1833
   4.000   0.4370   0.00479   0.00101   0.0259  0.1673  0.8495  -1.4246   0.0000   0.1847
   4.100   0.4484   0.00481   0.00103   0.0259  0.1665  0.8550  -1.4459   0.0000   0.1862
   4.200   0.4598   0.00483   0.00105   0.0259  0.1653  0.8583  -1.4677   0.0000   0.1876
   4.300   0.4712   0.00485   0.00108   0.0259  0.1639  0.8640  -1.4896   0.0000   0.1889
   4.400   0.4823   0.00486   0.00111   0.0259  0.1624  0.8725  -1.5112   0.0000   0.1899
   4.500   0.4934   0.00487   0.00114   0.0260  0.1606  0.8792  -1.5329   0.0000   0.1910
   4.600   0.5047   0.00490   0.00117   0.0260  0.1584  0.8844  -1.5548   0.0000   0.1920
   4.700   0.5161   0.00492   0.00119   0.0260  0.1570  0.8879  -1.5769   0.0000   0.1931
   4.800   0.5275   0.00494   0.00122   0.0260  0.1565  0.8901  -1.5993   0.0000   0.1942
   4.900   0.5388   0.00495   0.00124   0.0260  0.1559  0.8963  -1.6215   0.0000   0.1951
   5.000   0.5498   0.00496   0.00127   0.0261  0.1551  0.9043  -1.6435   0.0000   0.1958
   5.100   0.5608   0.00497   0.00130   0.0262  0.1540  0.9109  -1.6656   0.0000   0.1965
   5.200   0.5719   0.00499   0.00133   0.0263  0.1527  0.9162  -1.6879   0.0000   0.1973
   5.300   0.5831   0.00504   0.00137   0.0263  0.1498  0.9199  -1.7102   0.0000   0.1980
   5.400   0.5944   0.00509   0.00141   0.0263  0.1461  0.9225  -1.7328   0.0000   0.1988
   5.500   0.6058   0.00512   0.00144   0.0263  0.1453  0.9242  -1.7557   0.0000   0.1996
   5.600   0.6171   0.00514   0.00147   0.0263  0.1443  0.9304  -1.7785   0.0000   0.2003
   5.700   0.6280   0.00517   0.00151   0.0264  0.1424  0.9384  -1.8009   0.0000   0.2008
   5.800   0.6388   0.00522   0.00156   0.0265  0.1394  0.9453  -1.8233   0.0000   0.2013
   5.900   0.6497   0.00527   0.00160   0.0266  0.1358  0.9512  -1.8458   0.0000   0.2017
   6.000   0.6609   0.00530   0.00164   0.0267  0.1348  0.9555  -1.8688   0.0000   0.2023
   6.100   0.6721   0.00533   0.00167   0.0267  0.1335  0.9582  -1.8920   0.0000   0.2028
   6.200   0.6832   0.00539   0.00172   0.0267  0.1308  0.9601  -1.9151   0.0000   0.2033
   6.300   0.6946   0.00547   0.00178   0.0267  0.1263  0.9636  -1.9384   0.0000   0.2040
   6.400   0.7070   0.00551   0.00182   0.0264  0.1245  0.9699  -1.9641   0.0000   0.2049
   6.500   0.7196   0.00556   0.00186   0.0261  0.1226  0.9749  -1.9906   0.0000   0.2059
   6.600   0.7321   0.00564   0.00192   0.0258  0.1189  0.9789  -2.0903   0.0000   0.2069
   6.700   0.7446   0.00571   0.00197   0.0255  0.1149  0.9821  -2.1938   0.0000   0.2077
   6.800   0.7569   0.00578   0.00203   0.0252  0.1121  0.9847  -2.2985   0.0000   0.2086
   6.900   0.7690   0.00589   0.00211   0.0250  0.1063  0.9869  -2.4028   0.0000   0.2093
   7.000   0.7811   0.00597   0.00217   0.0248  0.1023  0.9886  -2.5088   0.0000   0.2100
   7.100   0.7927   0.00613   0.00228   0.0246  0.0936  0.9900  -2.6133   0.0000   0.2106
   7.200   0.8036   0.00643   0.00248   0.0245  0.0768  0.9913  -2.7139   0.0000   0.2111
   7.300   0.8101   0.00760   0.00332   0.0248  0.0107  0.9929  -2.7824   0.0000   0.2109
   7.400   0.8215   0.00776   0.00346   0.0247  0.0060  0.9937  -2.8881   0.0000   0.2113
   7.500   0.8332   0.00787   0.00356   0.0245  0.0042  0.9944  -2.9962   0.0000   0.2118
   7.600   0.8449   0.00797   0.00364   0.0244  0.0032  0.9950  -3.1064   0.0000   0.2123
   7.700   0.8566   0.00807   0.00374   0.0242  0.0023  0.9955  -3.2291   0.0000   0.2128
   7.800   0.8684   0.00816   0.00382   0.0241  0.0020  0.9960  -3.3531   0.0000   0.2132
   7.900   0.8802   0.00824   0.00390   0.0239  0.0019  0.9964  -3.4830   0.0000   0.2137
   8.000   0.8920   0.00833   0.00399   0.0237  0.0018  0.9968  -3.6140   0.0000   0.2141
   8.100   0.9038   0.00842   0.00407   0.0236  0.0017  0.9972  -3.7468   0.0000   0.2145
   8.200   0.9156   0.00851   0.00417   0.0234  0.0017  0.9975  -3.8816   0.0000   0.2150
   8.300   0.9275   0.00860   0.00426   0.0232  0.0016  0.9978  -4.0183   0.0000   0.2154
   8.400   0.9394   0.00869   0.00435   0.0230  0.0016  0.9980  -4.1571   0.0000   0.2158
   8.500   0.9513   0.00879   0.00444   0.0228  0.0015  0.9982  -4.2982   0.0000   0.2162
   8.600   0.9634   0.00889   0.00454   0.0225  0.0015  0.9985  -4.4414   0.0000   0.2166
   8.700   0.9754   0.00899   0.00464   0.0223  0.0014  0.9986  -4.5865   0.0000   0.2170
   8.800   0.9875   0.00909   0.00474   0.0221  0.0014  0.9988  -4.7332   0.0000   0.2174
   8.900   0.9994   0.00919   0.00484   0.0218  0.0014  0.9990  -4.8814   0.0000   0.2178
   9.000   1.0114   0.00929   0.00495   0.0216  0.0014  0.9991  -5.0309   0.0000   0.2182
   9.100   1.0232   0.00940   0.00505   0.0214  0.0013  0.9992  -5.1816   0.0000   0.2185
   9.200   1.0349   0.00951   0.00516   0.0212  0.0013  0.9993  -5.3332   0.0000   0.2188
   9.300   1.0465   0.00962   0.00528   0.0211  0.0013  0.9994  -5.4857   0.0000   0.2190
   9.400   1.0579   0.00973   0.00539   0.0209  0.0013  0.9994  -5.6389   0.0000   0.2192
   9.500   1.0692   0.00985   0.00551   0.0208  0.0013  0.9995  -5.7929   0.0000   0.2194
   9.600   1.0804   0.00996   0.00563   0.0208  0.0012  0.9996  -5.9477   0.0000   0.2195
   9.700   1.0915   0.01008   0.00576   0.0207  0.0012  0.9996  -6.1034   0.0000   0.2197
   9.800   1.1026   0.01021   0.00588   0.0206  0.0012  0.9997  -6.2603   0.0000   0.2198
   9.900   1.1135   0.01033   0.00602   0.0206  0.0012  0.9997  -6.4183   0.0000   0.2199
  10.000   1.1245   0.01046   0.00615   0.0205  0.0012  0.9998  -6.5774   0.0000   0.2200
  10.100   1.1354   0.01059   0.00629   0.0205  0.0012  0.9998  -6.7377   0.0000   0.2200
  10.200   1.1463   0.01073   0.00643   0.0204  0.0011  0.9998  -6.8990   0.0000   0.2201
  10.300   1.1571   0.01087   0.00658   0.0204  0.0011  0.9999  -7.0612   0.0000   0.2202
  10.400   1.1678   0.01102   0.00673   0.0204  0.0011  0.9999  -7.2242   0.0000   0.2202
  10.500   1.1785   0.01117   0.00689   0.0204  0.0011  1.0000  -7.3877   0.0000   0.2202
  10.600   1.1891   0.01132   0.00706   0.0203  0.0011  1.0000  -7.5517   0.0000   0.2202
  10.700   1.1989   0.01148   0.00723   0.0205  0.0011  1.0000  -7.7106   0.0000   0.2201
  10.800   1.2082   0.01165   0.00741   0.0207  0.0010  1.0000  -7.8661   0.0000   0.2199
  10.900   1.2174   0.01182   0.00760   0.0210  0.0010  1.0000  -8.0212   0.0000   0.2197
  11.000   1.2264   0.01201   0.00780   0.0213  0.0010  1.0000  -8.1752   0.0000   0.2194
  11.100   1.2353   0.01221   0.00802   0.0216  0.0010  1.0000  -8.3272   0.0000   0.2191
  11.200   1.2440   0.01243   0.00827   0.0219  0.0010  1.0000  -8.4751   0.0000   0.2189
  11.300   1.2523   0.01271   0.00857   0.0223  0.0009  1.0000  -8.6135   0.0000   0.2185
  11.400   1.2599   0.01305   0.00896   0.0227  0.0009  1.0000  -8.7401   0.0000   0.2181
  11.500   1.2690   0.01319   0.00910   0.0229  0.0009  1.0000  -8.9149   0.0000   0.2179
  11.600   1.2781   0.01333   0.00924   0.0232  0.0009  1.0000  -9.0907   0.0000   0.2177
  11.700   1.2872   0.01347   0.00939   0.0235  0.0009  1.0000  -9.2676   0.0000   0.2174
  11.800   1.2961   0.01362   0.00954   0.0238  0.0009  1.0000  -9.4456   0.0000   0.2172
  11.900   1.3050   0.01376   0.00969   0.0240  0.0009  1.0000  -9.6244   0.0000   0.2170
  12.000   1.3138   0.01391   0.00985   0.0243  0.0009  1.0000  -9.8042   0.0000   0.2167
  12.100   1.3226   0.01406   0.01000   0.0246  0.0009  1.0000  -9.9848   0.0000   0.2164
  12.200   1.3313   0.01422   0.01016   0.0249  0.0009  1.0000  -10.1662   0.0000   0.2162
  12.300   1.3399   0.01437   0.01032   0.0253  0.0009  1.0000  -10.3483   0.0000   0.2159
  12.400   1.3484   0.01453   0.01048   0.0256  0.0009  1.0000  -10.5312   0.0000   0.2156
  12.500   1.3568   0.01469   0.01064   0.0259  0.0009  1.0000  -10.7146   0.0000   0.2153
  12.600   1.3651   0.01485   0.01081   0.0263  0.0009  1.0000  -10.8986   0.0000   0.2150
  12.700   1.3733   0.01501   0.01098   0.0266  0.0009  1.0000  -11.0830   0.0000   0.2147
  12.800   1.3814   0.01518   0.01115   0.0270  0.0009  1.0000  -11.2679   0.0000   0.2143
  12.900   1.3894   0.01535   0.01132   0.0274  0.0009  1.0000  -11.4530   0.0000   0.2140
  13.000   1.3973   0.01552   0.01150   0.0278  0.0009  1.0000  -11.6382   0.0000   0.2136
  13.100   1.4050   0.01569   0.01168   0.0282  0.0009  1.0000  -11.8235   0.0000   0.2133
  13.200   1.4127   0.01587   0.01186   0.0287  0.0009  1.0000  -12.0088   0.0000   0.2129
  13.300   1.4201   0.01605   0.01205   0.0291  0.0009  1.0000  -12.1939   0.0000   0.2125
  13.400   1.4275   0.01623   0.01224   0.0296  0.0009  1.0000  -12.3787   0.0000   0.2121
  13.500   1.4346   0.01642   0.01243   0.0301  0.0009  1.0000  -12.5631   0.0000   0.2117
  13.600   1.4417   0.01661   0.01263   0.0306  0.0009  1.0000  -12.7470   0.0000   0.2113
  13.700   1.4485   0.01680   0.01283   0.0311  0.0009  1.0000  -12.9304   0.0000   0.2109
  13.800   1.4552   0.01700   0.01303   0.0316  0.0009  1.0000  -13.1133   0.0000   0.2104
  13.900   1.4618   0.01720   0.01324   0.0322  0.0008  1.0000  -13.2957   0.0000   0.2100
  14.000   1.4683   0.01741   0.01346   0.0327  0.0008  1.0000  -13.4779   0.0000   0.2095
  14.100   1.4747   0.01762   0.01368   0.0333  0.0008  1.0000  -13.6603   0.0000   0.2091
  14.200   1.4810   0.01784   0.01391   0.0338  0.0008  1.0000  -13.8431   0.0000   0.2086
  14.300   1.4873   0.01807   0.01415   0.0343  0.0008  1.0000  -14.0264   0.0000   0.2082
  14.400   1.4936   0.01831   0.01440   0.0348  0.0008  1.0000  -14.2097   0.0000   0.2078
  14.500   1.4997   0.01856   0.01465   0.0353  0.0008  1.0000  -14.3921   0.0000   0.2074
  14.600   1.5055   0.01881   0.01492   0.0358  0.0008  1.0000  -14.5727   0.0000   0.2069
  14.700   1.5110   0.01908   0.01520   0.0364  0.0008  1.0000  -14.7502   0.0000   0.2065
  14.800   1.5165   0.01937   0.01550   0.0369  0.0008  1.0000  -14.9272   0.0000   0.2060
  14.900   1.5177   0.01967   0.01581   0.0381  0.0008  1.0000  -15.0584   0.0000   0.2051
  15.000   1.5150   0.01995   0.01612   0.0400  0.0008  1.0000  -15.1442   0.0000   0.2036
  15.100   1.5151   0.02028   0.01647   0.0413  0.0008  1.0000  -15.2610   0.0000   0.2026
  15.200   1.5150   0.02067   0.01687   0.0424  0.0008  1.0000  -15.3747   0.0000   0.2017
  15.300   1.5142   0.02114   0.01737   0.0434  0.0008  1.0000  -15.4783   0.0000   0.2008
  15.400   1.5129   0.02173   0.01799   0.0441  0.0008  1.0000  -15.5733   0.0000   0.2001
  15.500   1.5110   0.02247   0.01876   0.0445  0.0008  1.0000  -15.6571   0.0000   0.1996
  15.600   1.5085   0.02341   0.01973   0.0444  0.0008  1.0000  -15.7292   0.0000   0.1994
  15.700   1.5062   0.02449   0.02085   0.0441  0.0008  1.0000  -15.8004   0.0000   0.1994
  15.800   1.5045   0.02566   0.02204   0.0435  0.0008  1.0000  -15.8756   0.0000   0.1995
  15.900   1.5028   0.02686   0.02328   0.0430  0.0008  1.0000  -15.9516   0.0000   0.1996
  16.000   1.5008   0.02811   0.02456   0.0425  0.0008  1.0000  -16.0242   0.0000   0.1997
  16.100   1.4983   0.02942   0.02590   0.0419  0.0008  1.0000  -16.0886   0.0000   0.1997
  16.200   1.4953   0.03078   0.02730   0.0414  0.0008  1.0000  -16.1463   0.0000   0.1998
  16.300   1.4915   0.03224   0.02879   0.0409  0.0008  1.0000  -16.1916   0.0000   0.1999
  16.400   1.4872   0.03376   0.03034   0.0403  0.0008  1.0000  -16.2293   0.0000   0.1999
  16.500   1.4819   0.03540   0.03201   0.0397  0.0007  1.0000  -16.2526   0.0000   0.2000
  16.600   1.4757   0.03713   0.03378   0.0390  0.0007  1.0000  -16.2624   0.0000   0.2001
  16.700   1.4691   0.03894   0.03563   0.0383  0.0007  1.0000  -16.2647   0.0000   0.2002
  16.800   1.4614   0.04092   0.03765   0.0375  0.0007  1.0000  -16.2495   0.0000   0.2004
  16.900   1.4529   0.04302   0.03979   0.0367  0.0007  1.0000  -16.2207   0.0000   0.2006
  17.000   1.4439   0.04519   0.04200   0.0357  0.0007  1.0000  -16.1849   0.0000   0.2008
  17.100   1.4340   0.04752   0.04437   0.0347  0.0007  1.0000  -16.1325   0.0000   0.2011
  17.200   1.4226   0.05004   0.04694   0.0336  0.0007  1.0000  -16.0549   0.0000   0.2015
  17.300   1.4107   0.05264   0.04959   0.0325  0.0007  1.0000  -15.9697   0.0000   0.2019
  17.400   1.3985   0.05533   0.05232   0.0313  0.0007  1.0000  -15.8773   0.0000   0.2023
  17.500   1.3858   0.05812   0.05517   0.0300  0.0007  1.0000  -15.7743   0.0000   0.2028
  17.600   1.3723   0.06108   0.05818   0.0286  0.0007  1.0000  -15.6560   0.0000   0.2034
  17.700   1.3583   0.06416   0.06130   0.0271  0.0008  1.0000  -15.5270   0.0000   0.2040
  17.800   1.3443   0.06730   0.06449   0.0256  0.0008  1.0000  -15.3955   0.0000   0.2047
  17.900   1.3308   0.07044   0.06768   0.0240  0.0008  1.0000  -15.2681   0.0000   0.2055
  18.000   1.3177   0.07356   0.07085   0.0225  0.0008  1.0000  -15.1447   0.0000   0.2063
  18.100   1.3037   0.07683   0.07417   0.0208  0.0008  1.0000  -15.0049   0.0000   0.2071
  18.200   1.2895   0.08018   0.07757   0.0191  0.0008  1.0000  -14.8583   0.0000   0.2081
  18.300   1.2760   0.08351   0.08094   0.0174  0.0008  1.0000  -14.7179   0.0000   0.2090
  18.400   1.2652   0.08643   0.08390   0.0159  0.0008  1.0000  -14.6221   0.0000   0.2099
  18.500   1.2538   0.08948   0.08699   0.0143  0.0008  1.0000  -14.5117   0.0000   0.2108
  18.600   1.2412   0.09275   0.09031   0.0126  0.0008  1.0000  -14.3776   0.0000   0.2119
  18.700   1.2338   0.09522   0.09280   0.0114  0.0008  1.0000  -14.3294   0.0000   0.2127
  18.800   1.2218   0.09847   0.09610   0.0096  0.0008  1.0000  -14.1996   0.0000   0.2138
  18.900   1.2156   0.10078   0.09843   0.0084  0.0008  1.0000  -14.1682   0.0000   0.2145
  19.000   1.2045   0.10393   0.10162   0.0067  0.0008  1.0000  -14.0466   0.0000   0.2157
  19.100   1.1991   0.10611   0.10382   0.0056  0.0008  1.0000  -14.0261   0.0000   0.2164
  19.200   1.1893   0.10909   0.10684   0.0039  0.0008  1.0000  -13.9210   0.0000   0.2176
  19.300   1.1843   0.11127   0.10904   0.0028  0.0008  1.0000  -13.9011   0.0000   0.2184
  19.400   1.1800   0.11332   0.11111   0.0016  0.0008  1.0000  -13.8929   0.0000   0.2191
  19.500   1.1711   0.11620   0.11402  -0.0000  0.0008  1.0000  -13.7957   0.0000   0.2203
  19.600   1.1676   0.11812   0.11596  -0.0011  0.0008  1.0000  -13.7980   0.0000   0.2210
  19.700   1.1641   0.12004   0.11790  -0.0021  0.0008  1.0000  -13.7995   0.0000   0.2218
  19.800   1.1562   0.12277   0.12067  -0.0038  0.0008  1.0000  -13.7137   0.0000   0.2230
  19.900   1.1533   0.12461   0.12253  -0.0048  0.0008  1.0000  -13.7221   0.0000   0.2237
  20.000   1.1509   0.12637   0.12430  -0.0058  0.0008  1.0000  -13.7391   0.0000   0.2244
  20.100   1.1445   0.12886   0.12681  -0.0073  0.0008  1.0000  -13.6763   0.0000   0.2256
  20.200   1.1411   0.13079   0.12877  -0.0085  0.0007  1.0000  -13.6702   0.0000   0.2264
  20.300   1.1393   0.13244   0.13043  -0.0094  0.0007  1.0000  -13.6947   0.0000   0.2270
  20.400   1.1376   0.13407   0.13207  -0.0104  0.0007  1.0000  -13.7209   0.0000   0.2277
  20.500   1.1319   0.13645   0.13448  -0.0119  0.0007  1.0000  -13.6639   0.0000   0.2289
  20.600   1.1292   0.13828   0.13633  -0.0130  0.0007  1.0000  -13.6659   0.0000   0.2297
  20.700   1.1279   0.13985   0.13792  -0.0140  0.0007  1.0000  -13.6954   0.0000   0.2304
  20.800   1.1268   0.14139   0.13947  -0.0149  0.0007  1.0000  -13.7281   0.0000   0.2310
  20.900   1.1255   0.14296   0.14105  -0.0159  0.0007  1.0000  -13.7566   0.0000   0.2317
  21.000   1.1201   0.14531   0.14343  -0.0174  0.0007  1.0000  -13.6948   0.0000   0.2329
  21.100   1.1186   0.14694   0.14507  -0.0184  0.0007  1.0000  -13.7143   0.0000   0.2337
  21.200   1.1177   0.14842   0.14656  -0.0194  0.0007  1.0000  -13.7482   0.0000   0.2343
  21.300   1.1170   0.14987   0.14803  -0.0203  0.0007  1.0000  -13.7853   0.0000   0.2349
  21.400   1.1164   0.15132   0.14948  -0.0213  0.0007  1.0000  -13.8225   0.0000   0.2356
  21.500   1.1120   0.15351   0.15170  -0.0227  0.0007  1.0000  -13.7726   0.0000   0.2368
  21.600   1.1102   0.15518   0.15339  -0.0238  0.0007  1.0000  -13.7812   0.0000   0.2376
  21.700   1.1097   0.15662   0.15484  -0.0248  0.0007  1.0000  -13.8164   0.0000   0.2383
  21.800   1.1095   0.15798   0.15621  -0.0257  0.0007  1.0000  -13.8595   0.0000   0.2389
  21.900   1.1093   0.15935   0.15759  -0.0266  0.0007  1.0000  -13.9008   0.0000   0.2395
  22.000   1.1088   0.16076   0.15901  -0.0276  0.0007  1.0000  -13.9362   0.0000   0.2401
  22.100   1.1043   0.16299   0.16126  -0.0291  0.0007  1.0000  -13.8727   0.0000   0.2415
  22.200   1.1033   0.16451   0.16280  -0.0301  0.0007  1.0000  -13.8920   0.0000   0.2422
  22.300   1.1031   0.16586   0.16417  -0.0311  0.0007  1.0000  -13.9313   0.0000   0.2429
  22.400   1.1032   0.16718   0.16549  -0.0320  0.0007  1.0000  -13.9735   0.0000   0.2435
  22.500   1.1031   0.16851   0.16683  -0.0329  0.0007  1.0000  -14.0143   0.0000   0.2441
  22.600   1.1030   0.16986   0.16820  -0.0339  0.0007  1.0000  -14.0502   0.0000   0.2447
  22.700   1.0999   0.17183   0.17018  -0.0353  0.0007  1.0000  -14.0114   0.0000   0.2459
  22.800   1.0982   0.17350   0.17187  -0.0365  0.0006  1.0000  -14.0057   0.0000   0.2469
  22.900   1.0981   0.17485   0.17323  -0.0374  0.0006  1.0000  -14.0395   0.0000   0.2475
  23.000   1.0982   0.17614   0.17453  -0.0384  0.0006  1.0000  -14.0794   0.0000   0.2481
  23.100   1.0984   0.17742   0.17583  -0.0393  0.0006  1.0000  -14.1194   0.0000   0.2488
  23.200   1.0985   0.17873   0.17714  -0.0402  0.0006  1.0000  -14.1559   0.0000   0.2494
  23.300   1.0983   0.18008   0.17850  -0.0412  0.0006  1.0000  -14.1855   0.0000   0.2501
  23.400   1.0948   0.18214   0.18059  -0.0427  0.0006  1.0000  -14.1230   0.0000   0.2514
  23.500   1.0940   0.18362   0.18209  -0.0438  0.0006  1.0000  -14.1337   0.0000   0.2522
  23.600   1.0941   0.18493   0.18340  -0.0448  0.0006  1.0000  -14.1661   0.0000   0.2529
  23.700   1.0943   0.18619   0.18468  -0.0457  0.0006  1.0000  -14.2026   0.0000   0.2535
  23.800   1.0946   0.18745   0.18595  -0.0467  0.0006  1.0000  -14.2384   0.0000   0.2542
  23.900   1.0947   0.18874   0.18725  -0.0477  0.0006  1.0000  -14.2701   0.0000   0.2548
  24.000   1.0947   0.19005   0.18857  -0.0486  0.0006  1.0000  -14.2975   0.0000   0.2555
  24.100   1.0914   0.19211   0.19066  -0.0502  0.0006  1.0000  -14.2241   0.0000   0.2569
  24.200   1.0909   0.19355   0.19210  -0.0513  0.0006  1.0000  -14.2333   0.0000   0.2577
  24.300   1.0910   0.19483   0.19340  -0.0523  0.0006  1.0000  -14.2608   0.0000   0.2584
  24.400   1.0913   0.19608   0.19466  -0.0532  0.0006  1.0000  -14.2915   0.0000   0.2590
  24.500   1.0915   0.19734   0.19593  -0.0542  0.0006  1.0000  -14.3203   0.0000   0.2597
  24.600   1.0917   0.19862   0.19722  -0.0552  0.0006  1.0000  -14.3458   0.0000   0.2604
  24.700   1.0917   0.19994   0.19855  -0.0562  0.0006  1.0000  -14.3645   0.0000   0.2611
  24.800   1.0882   0.20204   0.20068  -0.0578  0.0006  1.0000  -14.2728   0.0000   0.2626
  24.900   1.0880   0.20341   0.20206  -0.0589  0.0006  1.0000  -14.2819   0.0000   0.2634
  25.000   1.0881   0.20469   0.20335  -0.0599  0.0006  1.0000  -14.3023   0.0000   0.2641


