xflr5 v6.47

 Calculated polar for: 763ER

 1 1 Reynolds number fixed          Mach number fixed         

 xtrf =   1.000 (top)        1.000 (bottom)
 Mach =   0.000     Re =     7.000 e 6     Ncrit =   9.000

  alpha     CL        CD       CDp       Cm    Top Xtr Bot Xtr   Cpmin    Chinge    XCp    
 ------- -------- --------- --------- -------- ------- ------- -------- --------- ---------
 -25.000  -0.9061   0.22873   0.22797   0.0795  1.0000  0.0027  -8.5632   0.0000   0.3073
 -24.900  -0.9046   0.22763   0.22687   0.0787  1.0000  0.0028  -8.5524   0.0000   0.3067
 -24.800  -0.9032   0.22649   0.22573   0.0779  1.0000  0.0028  -8.5492   0.0000   0.3061
 -24.700  -0.9115   0.22269   0.22190   0.0759  1.0000  0.0030  -8.9669   0.0000   0.3027
 -24.600  -0.9104   0.22149   0.22070   0.0751  1.0000  0.0030  -8.9686   0.0000   0.3020
 -24.500  -0.9091   0.22035   0.21956   0.0742  1.0000  0.0030  -8.9588   0.0000   0.3014
 -24.400  -0.9078   0.21922   0.21842   0.0734  1.0000  0.0031  -8.9488   0.0000   0.3007
 -24.300  -0.9065   0.21806   0.21726   0.0726  1.0000  0.0031  -8.9408   0.0000   0.3001
 -24.200  -0.9053   0.21687   0.21607   0.0718  1.0000  0.0031  -8.9362   0.0000   0.2994
 -24.100  -0.9119   0.21369   0.21286   0.0699  1.0000  0.0032  -9.2369   0.0000   0.2966
 -24.000  -0.9115   0.21231   0.21147   0.0690  1.0000  0.0032  -9.2577   0.0000   0.2957
 -23.900  -0.9107   0.21105   0.21021   0.0681  1.0000  0.0032  -9.2592   0.0000   0.2949
 -23.800  -0.9096   0.20983   0.20898   0.0672  1.0000  0.0032  -9.2536   0.0000   0.2942
 -23.700  -0.9085   0.20862   0.20777   0.0664  1.0000  0.0032  -9.2448   0.0000   0.2935
 -23.600  -0.9075   0.20740   0.20654   0.0655  1.0000  0.0032  -9.2371   0.0000   0.2928
 -23.500  -0.9066   0.20612   0.20526   0.0646  1.0000  0.0033  -9.2357   0.0000   0.2920
 -23.400  -0.9130   0.20309   0.20221   0.0628  1.0000  0.0033  -9.4911   0.0000   0.2893
 -23.300  -0.9132   0.20158   0.20068   0.0618  1.0000  0.0033  -9.5206   0.0000   0.2883
 -23.200  -0.9127   0.20022   0.19931   0.0608  1.0000  0.0033  -9.5264   0.0000   0.2874
 -23.100  -0.9120   0.19890   0.19799   0.0599  1.0000  0.0033  -9.5255   0.0000   0.2866
 -23.000  -0.9114   0.19756   0.19665   0.0590  1.0000  0.0033  -9.5258   0.0000   0.2858
 -22.900  -0.9118   0.19598   0.19506   0.0579  1.0000  0.0034  -9.5615   0.0000   0.2847
 -22.800  -0.9212   0.19237   0.19141   0.0557  1.0000  0.0034  -9.8794   0.0000   0.2814
 -22.700  -0.9224   0.19061   0.18965   0.0545  1.0000  0.0035  -9.9327   0.0000   0.2801
 -22.500  -0.9346   0.18501   0.18401   0.0508  1.0000  0.0036  -10.3196   0.0000   0.2753
 -22.400  -0.9370   0.18301   0.18199   0.0495  1.0000  0.0036  -10.3980   0.0000   0.2738
 -22.300  -0.9401   0.18089   0.17987   0.0481  1.0000  0.0037  -10.4893   0.0000   0.2722
 -22.200  -0.9525   0.17681   0.17575   0.0454  1.0000  0.0037  -10.8408   0.0000   0.2685
 -22.000  -0.9706   0.17019   0.16907   0.0409  1.0000  0.0037  -11.3209   0.0000   0.2629
 -21.900  -0.9758   0.16768   0.16654   0.0391  1.0000  0.0038  -11.4504   0.0000   0.2610
 -21.800  -0.9919   0.16302   0.16184   0.0359  1.0000  0.0037  -11.8503   0.0000   0.2570
 -21.700  -1.0086   0.15828   0.15704   0.0326  1.0000  0.0037  -12.2527   0.0000   0.2530
 -21.600  -1.0176   0.15510   0.15384   0.0304  1.0000  0.0037  -12.4508   0.0000   0.2506
 -21.500  -1.0382   0.14972   0.14840   0.0266  1.0000  0.0036  -12.9177   0.0000   0.2462
 -21.400  -1.0615   0.14387   0.14249   0.0225  1.0000  0.0036  -13.4296   0.0000   0.2417
 -21.300  -1.0884   0.13743   0.13597   0.0179  1.0000  0.0035  -14.0022   0.0000   0.2368
 -21.200  -1.1330   0.12781   0.12625   0.0109  1.0000  0.0033  -14.9343   0.0000   0.2299
 -21.000  -1.3592   0.08534   0.08321  -0.0193  1.0000  0.0031  -19.3491   0.0000   0.2058
 -20.900  -1.4030   0.07679   0.07454  -0.0251  1.0000  0.0030  -20.0889   0.0000   0.2023
 -20.800  -1.4332   0.07071   0.06836  -0.0291  1.0000  0.0030  -20.5579   0.0000   0.2001
 -20.700  -1.4584   0.06560   0.06318  -0.0324  1.0000  0.0030  -20.9233   0.0000   0.1984
 -20.600  -1.4787   0.06138   0.05888  -0.0350  1.0000  0.0029  -21.1933   0.0000   0.1972
 -20.500  -1.4959   0.05773   0.05517  -0.0372  1.0000  0.0029  -21.4005   0.0000   0.1963
 -20.400  -1.5110   0.05449   0.05186  -0.0391  1.0000  0.0029  -21.5658   0.0000   0.1955
 -20.300  -1.5244   0.05155   0.04888  -0.0407  1.0000  0.0029  -21.6987   0.0000   0.1949
 -20.200  -1.5364   0.04891   0.04618  -0.0421  1.0000  0.0029  -21.8022   0.0000   0.1945
 -20.100  -1.5469   0.04653   0.04375  -0.0433  1.0000  0.0029  -21.8775   0.0000   0.1942
 -20.000  -1.5565   0.04433   0.04151  -0.0443  1.0000  0.0029  -21.9341   0.0000   0.1940
 -19.900  -1.5654   0.04230   0.03943  -0.0451  1.0000  0.0029  -21.9761   0.0000   0.1939
 -19.800  -1.5735   0.04043   0.03753  -0.0457  1.0000  0.0029  -22.0026   0.0000   0.1938
 -19.700  -1.5811   0.03872   0.03577  -0.0462  1.0000  0.0029  -22.0161   0.0000   0.1939
 -19.600  -1.5881   0.03715   0.03416  -0.0465  1.0000  0.0029  -22.0185   0.0000   0.1941
 -19.500  -1.5947   0.03570   0.03268  -0.0467  1.0000  0.0029  -22.0121   0.0000   0.1944
 -19.400  -1.6008   0.03438   0.03133  -0.0467  1.0000  0.0030  -21.9951   0.0000   0.1947
 -19.300  -1.6066   0.03316   0.03006  -0.0465  1.0000  0.0030  -21.9707   0.0000   0.1951
 -19.200  -1.6119   0.03204   0.02891  -0.0462  1.0000  0.0030  -21.9368   0.0000   0.1956
 -19.100  -1.6168   0.03101   0.02785  -0.0458  1.0000  0.0030  -21.8955   0.0000   0.1962
 -19.000  -1.6215   0.03006   0.02687  -0.0453  1.0000  0.0030  -21.8487   0.0000   0.1968
 -18.900  -1.6259   0.02918   0.02596  -0.0446  1.0000  0.0030  -21.7962   0.0000   0.1975
 -18.800  -1.6298   0.02838   0.02513  -0.0439  1.0000  0.0030  -21.7347   0.0000   0.1983
 -18.700  -1.6332   0.02766   0.02438  -0.0430  1.0000  0.0031  -21.6658   0.0000   0.1990
 -18.600  -1.6369   0.02696   0.02366  -0.0421  1.0000  0.0031  -21.5992   0.0000   0.1999
 -18.500  -1.6398   0.02634   0.02300  -0.0411  1.0000  0.0031  -21.5208   0.0000   0.2007
 -18.400  -1.6424   0.02575   0.02239  -0.0400  1.0000  0.0031  -21.4380   0.0000   0.2016
 -18.300  -1.6451   0.02520   0.02181  -0.0389  1.0000  0.0031  -21.3542   0.0000   0.2025
 -18.200  -1.6470   0.02470   0.02129  -0.0377  1.0000  0.0031  -21.2609   0.0000   0.2035
 -18.100  -1.6489   0.02423   0.02080  -0.0365  1.0000  0.0031  -21.1658   0.0000   0.2044
 -18.000  -1.6510   0.02379   0.02034  -0.0351  1.0000  0.0031  -21.0719   0.0000   0.2055
 -17.900  -1.6517   0.02341   0.01993  -0.0339  1.0000  0.0032  -20.9608   0.0000   0.2064
 -17.800  -1.6538   0.02303   0.01952  -0.0324  1.0000  0.0032  -20.8658   0.0000   0.2075
 -17.700  -1.6546   0.02267   0.01915  -0.0310  1.0000  0.0032  -20.7543   0.0000   0.2086
 -17.600  -1.6550   0.02234   0.01879  -0.0295  1.0000  0.0032  -20.6369   0.0000   0.2096
 -17.500  -1.6567   0.02202   0.01845  -0.0279  1.0000  0.0032  -20.5360   0.0000   0.2108
 -17.400  -1.6576   0.02172   0.01814  -0.0262  1.0000  0.0032  -20.4243   0.0000   0.2120
 -17.300  -1.6567   0.02146   0.01785  -0.0248  1.0000  0.0032  -20.2908   0.0000   0.2130
 -17.200  -1.6563   0.02120   0.01758  -0.0233  1.0000  0.0032  -20.1626   0.0000   0.2141
 -17.100  -1.6570   0.02097   0.01733  -0.0215  1.0000  0.0032  -20.0480   0.0000   0.2154
 -17.000  -1.6607   0.02078   0.01711  -0.0191  1.0000  0.0032  -19.9676   0.0000   0.2170
 -16.900  -1.6630   0.02059   0.01690  -0.0169  1.0000  0.0032  -19.8709   0.0000   0.2185
 -16.800  -1.6591   0.02035   0.01665  -0.0158  1.0000  0.0033  -19.7025   0.0000   0.2193
 -16.700  -1.6547   0.02011   0.01639  -0.0149  1.0000  0.0033  -19.5272   0.0000   0.2200
 -16.600  -1.6498   0.01988   0.01615  -0.0140  1.0000  0.0033  -19.3477   0.0000   0.2207
 -16.500  -1.6446   0.01965   0.01590  -0.0132  1.0000  0.0033  -19.1646   0.0000   0.2214
 -16.400  -1.6391   0.01942   0.01566  -0.0124  1.0000  0.0033  -18.9784   0.0000   0.2220
 -16.300  -1.6332   0.01920   0.01542  -0.0116  1.0000  0.0033  -18.7895   0.0000   0.2227
 -16.200  -1.6275   0.01896   0.01517  -0.0109  1.0000  0.0033  -18.6035   0.0000   0.2233
 -16.100  -1.6215   0.01872   0.01491  -0.0101  1.0000  0.0034  -18.4156   0.0000   0.2239
 -16.000  -1.6153   0.01848   0.01466  -0.0094  1.0000  0.0035  -18.2259   0.0000   0.2245
 -15.900  -1.6089   0.01825   0.01441  -0.0088  1.0000  0.0036  -18.0348   0.0000   0.2251
 -15.800  -1.6023   0.01801   0.01416  -0.0081  1.0000  0.0037  -17.8425   0.0000   0.2256
 -15.700  -1.5956   0.01778   0.01392  -0.0075  1.0000  0.0037  -17.6493   0.0000   0.2262
 -15.600  -1.5887   0.01754   0.01367  -0.0069  1.0000  0.0038  -17.4554   0.0000   0.2267
 -15.500  -1.5817   0.01731   0.01343  -0.0063  1.0000  0.0039  -17.2606   0.0000   0.2272
 -15.400  -1.5745   0.01708   0.01319  -0.0057  1.0000  0.0040  -17.0651   0.0000   0.2278
 -15.300  -1.5671   0.01686   0.01295  -0.0052  1.0000  0.0041  -16.8687   0.0000   0.2283
 -15.200  -1.5596   0.01664   0.01272  -0.0047  1.0000  0.0042  -16.6710   0.0000   0.2288
 -15.100  -1.5519   0.01642   0.01250  -0.0042  1.0000  0.0042  -16.4723   0.0000   0.2293
 -15.000  -1.5440   0.01622   0.01229  -0.0037  1.0000  0.0043  -16.2728   0.0000   0.2297
 -14.900  -1.5360   0.01602   0.01208  -0.0032  1.0000  0.0044  -16.0725   0.0000   0.2302
 -14.800  -1.5278   0.01582   0.01187  -0.0028  1.0000  0.0044  -15.8716   0.0000   0.2306
 -14.700  -1.5195   0.01563   0.01168  -0.0024  1.0000  0.0045  -15.6703   0.0000   0.2311
 -14.600  -1.5111   0.01545   0.01149  -0.0019  1.0000  0.0046  -15.4687   0.0000   0.2315
 -14.500  -1.5025   0.01527   0.01130  -0.0016  1.0000  0.0046  -15.2669   0.0000   0.2320
 -14.400  -1.4938   0.01510   0.01112  -0.0012  1.0000  0.0047  -15.0649   0.0000   0.2324
 -14.300  -1.4850   0.01493   0.01094  -0.0008  1.0000  0.0047  -14.8631   0.0000   0.2328
 -14.200  -1.4762   0.01477   0.01077  -0.0005  1.0000  0.0048  -14.6614   0.0000   0.2332
 -14.100  -1.4672   0.01461   0.01060  -0.0001  1.0000  0.0048  -14.4601   0.0000   0.2336
 -14.000  -1.4582   0.01445   0.01044   0.0002  1.0000  0.0048  -14.2591   0.0000   0.2340
 -13.900  -1.4490   0.01430   0.01028   0.0005  1.0000  0.0048  -14.0586   0.0000   0.2344
 -13.800  -1.4399   0.01415   0.01012   0.0009  1.0000  0.0049  -13.8585   0.0000   0.2348
 -13.700  -1.4306   0.01400   0.00996   0.0012  1.0000  0.0049  -13.6590   0.0000   0.2352
 -13.600  -1.4213   0.01385   0.00981   0.0015  1.0000  0.0049  -13.4601   0.0000   0.2355
 -13.500  -1.4119   0.01371   0.00966   0.0018  1.0000  0.0049  -13.2619   0.0000   0.2359
 -13.400  -1.4024   0.01357   0.00951   0.0020  1.0000  0.0049  -13.0643   0.0000   0.2363
 -13.300  -1.3930   0.01343   0.00937   0.0023  1.0000  0.0049  -12.8677   0.0000   0.2367
 -13.200  -1.3836   0.01327   0.00920   0.0026  1.0000  0.0051  -12.6755   0.0000   0.2371
 -13.100  -1.3743   0.01311   0.00903   0.0029  1.0000  0.0052  -12.4838   0.0000   0.2374
 -13.000  -1.3648   0.01295   0.00886   0.0032  1.0000  0.0053  -12.2930   0.0000   0.2378
 -12.900  -1.3554   0.01279   0.00870   0.0035  1.0000  0.0055  -12.1029   0.0000   0.2382
 -12.800  -1.3459   0.01263   0.00854   0.0038  1.0000  0.0056  -11.9138   0.0000   0.2386
 -12.700  -1.3363   0.01247   0.00838   0.0040  1.0000  0.0058  -11.7255   0.0000   0.2390
 -12.600  -1.3267   0.01232   0.00822   0.0043  1.0000  0.0059  -11.5380   0.0000   0.2393
 -12.500  -1.3171   0.01217   0.00807   0.0046  1.0000  0.0060  -11.3509   0.0000   0.2397
 -12.400  -1.3092   0.01240   0.00790   0.0052  0.8000  0.0061  -11.1819   0.0000   0.2404
 -12.300  -1.3000   0.01244   0.00773   0.0055  0.6995  0.0063  -11.0023   0.0000   0.2408
 -12.200  -1.2902   0.01235   0.00759   0.0057  0.6765  0.0064  -10.8181   0.0000   0.2411
 -12.100  -1.2803   0.01224   0.00745   0.0059  0.6619  0.0065  -10.6341   0.0000   0.2415
 -12.000  -1.2703   0.01214   0.00732   0.0061  0.6500  0.0066  -10.4507   0.0000   0.2418
 -11.900  -1.2603   0.01203   0.00719   0.0063  0.6411  0.0067  -10.2679   0.0000   0.2422
 -11.800  -1.2502   0.01193   0.00707   0.0065  0.6328  0.0067  -10.0860   0.0000   0.2425
 -11.600  -1.2298   0.01174   0.00683   0.0069  0.6187  0.0068  -9.7249   0.0000   0.2432
 -11.500  -1.2196   0.01164   0.00672   0.0071  0.6131  0.0069  -9.5458   0.0000   0.2435
 -11.400  -1.2093   0.01155   0.00661   0.0073  0.6068  0.0069  -9.3679   0.0000   0.2439
 -11.300  -1.1990   0.01146   0.00651   0.0074  0.6025  0.0069  -9.1910   0.0000   0.2442
 -11.200  -1.1887   0.01135   0.00639   0.0076  0.5973  0.0070  -9.0382   0.0000   0.2446
 -11.100  -1.1785   0.01124   0.00625   0.0078  0.5915  0.0072  -8.8990   0.0000   0.2449
 -11.000  -1.1683   0.01112   0.00613   0.0080  0.5874  0.0075  -8.7602   0.0000   0.2453
 -10.900  -1.1580   0.01101   0.00600   0.0082  0.5821  0.0077  -8.6219   0.0000   0.2456
 -10.800  -1.1478   0.01090   0.00587   0.0084  0.5769  0.0080  -8.4841   0.0000   0.2460
 -10.700  -1.1375   0.01078   0.00575   0.0085  0.5729  0.0082  -8.3467   0.0000   0.2463
 -10.600  -1.1271   0.01068   0.00563   0.0087  0.5680  0.0084  -8.2097   0.0000   0.2467
 -10.500  -1.1167   0.01058   0.00552   0.0089  0.5630  0.0085  -8.0732   0.0000   0.2470
 -10.400  -1.1062   0.01048   0.00542   0.0090  0.5595  0.0087  -7.9372   0.0000   0.2474
 -10.300  -1.0957   0.01039   0.00531   0.0092  0.5548  0.0088  -7.8018   0.0000   0.2477
 -10.100  -1.0746   0.01022   0.00512   0.0094  0.5460  0.0091  -7.5330   0.0000   0.2484
 -10.000  -1.0639   0.01014   0.00503   0.0096  0.5416  0.0092  -7.3997   0.0000   0.2487
  -9.900  -1.0533   0.01007   0.00494   0.0097  0.5364  0.0092  -7.2671   0.0000   0.2491
  -9.800  -1.0425   0.00999   0.00485   0.0098  0.5329  0.0093  -7.1352   0.0000   0.2494
  -9.700  -1.0318   0.00992   0.00477   0.0099  0.5293  0.0093  -7.0042   0.0000   0.2497
  -9.600  -1.0212   0.00983   0.00467   0.0101  0.5247  0.0095  -6.8757   0.0000   0.2501
  -9.500  -1.0105   0.00974   0.00456   0.0102  0.5200  0.0099  -6.7489   0.0000   0.2505
  -9.400  -0.9999   0.00965   0.00446   0.0104  0.5169  0.0103  -6.6226   0.0000   0.2508
  -9.300  -0.9893   0.00955   0.00436   0.0105  0.5129  0.0107  -6.4971   0.0000   0.2512
  -9.200  -0.9786   0.00946   0.00427   0.0106  0.5080  0.0110  -6.3721   0.0000   0.2516
  -9.100  -0.9679   0.00938   0.00417   0.0107  0.5046  0.0113  -6.2475   0.0000   0.2519
  -9.000  -0.9571   0.00930   0.00409   0.0109  0.5015  0.0116  -6.1235   0.0000   0.2523
  -8.900  -0.9463   0.00923   0.00401   0.0110  0.4975  0.0118  -6.0041   0.0000   0.2526
  -8.800  -0.9354   0.00917   0.00393   0.0111  0.4927  0.0119  -5.8900   0.0000   0.2530
  -8.700  -0.9245   0.00910   0.00386   0.0112  0.4897  0.0120  -5.7764   0.0000   0.2533
  -8.600  -0.9135   0.00904   0.00379   0.0112  0.4865  0.0121  -5.6633   0.0000   0.2537
  -8.500  -0.9027   0.00897   0.00371   0.0114  0.4825  0.0125  -5.5529   0.0000   0.2541
  -8.400  -0.8919   0.00888   0.00361   0.0115  0.4778  0.0133  -5.4438   0.0000   0.2545
  -8.300  -0.8811   0.00879   0.00353   0.0116  0.4753  0.0138  -5.3350   0.0000   0.2548
  -8.200  -0.8702   0.00872   0.00344   0.0117  0.4724  0.0143  -5.2265   0.0000   0.2552
  -8.100  -0.8593   0.00865   0.00337   0.0118  0.4688  0.0147  -5.1184   0.0000   0.2556
  -8.000  -0.8483   0.00859   0.00330   0.0119  0.4643  0.0149  -5.0110   0.0000   0.2560
  -7.900  -0.8373   0.00854   0.00324   0.0120  0.4613  0.0151  -4.9043   0.0000   0.2564
  -7.800  -0.8262   0.00848   0.00318   0.0120  0.4586  0.0152  -4.7982   0.0000   0.2568
  -7.700  -0.8152   0.00842   0.00311   0.0121  0.4552  0.0155  -4.6936   0.0000   0.2572
  -7.600  -0.8042   0.00836   0.00303   0.0122  0.4513  0.0163  -4.5908   0.0000   0.2576
  -7.500  -0.7932   0.00828   0.00296   0.0123  0.4477  0.0170  -4.4887   0.0000   0.2580
  -7.400  -0.7822   0.00821   0.00288   0.0124  0.4457  0.0176  -4.3870   0.0000   0.2584
  -7.300  -0.7712   0.00815   0.00282   0.0125  0.4429  0.0181  -4.2858   0.0000   0.2588
  -7.200  -0.7601   0.00810   0.00276   0.0125  0.4394  0.0185  -4.1853   0.0000   0.2593
  -7.100  -0.7490   0.00805   0.00270   0.0126  0.4351  0.0188  -4.0854   0.0000   0.2597
  -7.000  -0.7379   0.00800   0.00264   0.0127  0.4326  0.0192  -3.9907   0.0000   0.2601
  -6.900  -0.7268   0.00793   0.00258   0.0128  0.4304  0.0202  -3.9012   0.0000   0.2606
  -6.800  -0.7157   0.00787   0.00251   0.0128  0.4277  0.0211  -3.8122   0.0000   0.2611
  -6.700  -0.7046   0.00781   0.00245   0.0129  0.4245  0.0217  -3.7237   0.0000   0.2615
  -6.600  -0.6935   0.00776   0.00240   0.0130  0.4206  0.0223  -3.6356   0.0000   0.2620
  -6.500  -0.6823   0.00772   0.00234   0.0130  0.4183  0.0227  -3.5480   0.0000   0.2625
  -6.400  -0.6711   0.00767   0.00229   0.0131  0.4163  0.0231  -3.4613   0.0000   0.2630
  -6.300  -0.6599   0.00761   0.00223   0.0132  0.4136  0.0244  -3.3761   0.0000   0.2635
  -6.200  -0.6488   0.00755   0.00218   0.0132  0.4104  0.0255  -3.2916   0.0000   0.2640
  -6.100  -0.6376   0.00750   0.00212   0.0133  0.4068  0.0263  -3.2075   0.0000   0.2645
  -6.000  -0.6264   0.00746   0.00207   0.0133  0.4045  0.0270  -3.1238   0.0000   0.2651
  -5.900  -0.6151   0.00741   0.00203   0.0134  0.4029  0.0277  -3.0409   0.0000   0.2656
  -5.800  -0.6040   0.00735   0.00197   0.0135  0.4007  0.0295  -2.9596   0.0000   0.2662
  -5.700  -0.5928   0.00730   0.00192   0.0135  0.3979  0.0307  -2.8788   0.0000   0.2668
  -5.600  -0.5815   0.00726   0.00187   0.0136  0.3947  0.0316  -2.8048   0.0000   0.2674
  -5.500  -0.5702   0.00723   0.00183   0.0136  0.3910  0.0322  -2.7314   0.0000   0.2680
  -5.400  -0.5590   0.00718   0.00178   0.0137  0.3897  0.0339  -2.6590   0.0000   0.2686
  -5.300  -0.5478   0.00712   0.00173   0.0137  0.3880  0.0355  -2.5874   0.0000   0.2693
  -5.200  -0.5365   0.00707   0.00169   0.0138  0.3859  0.0367  -2.5161   0.0000   0.2700
  -5.100  -0.5251   0.00704   0.00165   0.0138  0.3834  0.0375  -2.4453   0.0000   0.2707
  -5.000  -0.5139   0.00700   0.00161   0.0139  0.3804  0.0398  -2.3758   0.0000   0.2714
  -4.900  -0.5027   0.00695   0.00156   0.0139  0.3771  0.0419  -2.3069   0.0000   0.2722
  -4.800  -0.4913   0.00691   0.00152   0.0139  0.3759  0.0431  -2.2381   0.0000   0.2730
  -4.700  -0.4800   0.00687   0.00149   0.0140  0.3742  0.0449  -2.1722   0.0000   0.2738
  -4.600  -0.4687   0.00681   0.00145   0.0140  0.3722  0.0472  -2.1108   0.0000   0.2746
  -4.500  -0.4574   0.00678   0.00141   0.0141  0.3698  0.0489  -2.0496   0.0000   0.2755
  -4.400  -0.4460   0.00675   0.00137   0.0141  0.3672  0.0500  -1.9889   0.0000   0.2764
  -4.300  -0.4347   0.00671   0.00134   0.0141  0.3642  0.0532  -1.9293   0.0000   0.2774
  -4.200  -0.4234   0.00666   0.00130   0.0142  0.3626  0.0556  -1.8699   0.0000   0.2784
  -4.100  -0.4120   0.00663   0.00127   0.0142  0.3614  0.0574  -1.8109   0.0000   0.2795
  -4.000  -0.4007   0.00658   0.00123   0.0142  0.3597  0.0607  -1.7529   0.0000   0.2806
  -3.900  -0.3893   0.00654   0.00120   0.0143  0.3575  0.0628  -1.6997   0.0000   0.2817
  -3.800  -0.3779   0.00652   0.00117   0.0143  0.3551  0.0643  -1.6471   0.0000   0.2830
  -3.700  -0.3666   0.00648   0.00114   0.0143  0.3523  0.0680  -1.5954   0.0000   0.2843
  -3.600  -0.3552   0.00645   0.00111   0.0144  0.3495  0.0708  -1.5439   0.0000   0.2857
  -3.500  -0.3437   0.00642   0.00108   0.0144  0.3487  0.0732  -1.4928   0.0000   0.2871
  -3.400  -0.3324   0.00637   0.00105   0.0144  0.3475  0.0768  -1.4426   0.0000   0.2887
  -3.300  -0.3209   0.00634   0.00103   0.0144  0.3459  0.0791  -1.3966   0.0000   0.2903
  -3.200  -0.3095   0.00632   0.00101   0.0145  0.3440  0.0808  -1.3509   0.0000   0.2921
  -3.100  -0.2981   0.00628   0.00098   0.0145  0.3417  0.0852  -1.3060   0.0000   0.2940
  -3.000  -0.2867   0.00626   0.00096   0.0145  0.3390  0.0881  -1.2613   0.0000   0.2961
  -2.800  -0.2638   0.00620   0.00091   0.0146  0.3353  0.0944  -1.1771   0.0000   0.3007
  -2.700  -0.2524   0.00617   0.00089   0.0146  0.3341  0.0974  -1.1370   0.0000   0.3033
  -2.600  -0.2409   0.00614   0.00087   0.0146  0.3328  0.1008  -1.0973   0.0000   0.3061
  -2.500  -0.2295   0.00611   0.00085   0.0146  0.3311  0.1054  -1.0581   0.0000   0.3093
  -2.400  -0.2180   0.00609   0.00083   0.0146  0.3291  0.1079  -1.0218   0.0000   0.3127
  -2.300  -0.2066   0.00607   0.00081   0.0146  0.3268  0.1126  -0.9863   0.0000   0.3165
  -2.200  -0.1952   0.00604   0.00080   0.0147  0.3239  0.1171  -0.9510   0.0000   0.3208
  -2.100  -0.1837   0.00601   0.00078   0.0147  0.3224  0.1217  -0.9164   0.0000   0.3256
  -2.000  -0.1723   0.00598   0.00076   0.0147  0.3214  0.1268  -0.8844   0.0000   0.3310
  -1.900  -0.1608   0.00595   0.00075   0.0147  0.3201  0.1306  -0.8525   0.0000   0.3372
  -1.800  -0.1494   0.00591   0.00073   0.0147  0.3185  0.1376  -0.8211   0.0000   0.3443
  -1.700  -0.1379   0.00589   0.00071   0.0147  0.3167  0.1430  -0.7915   0.0000   0.3526
  -1.600  -0.1265   0.00586   0.00070   0.0147  0.3147  0.1494  -0.7628   0.0000   0.3624
  -1.500  -0.1150   0.00584   0.00068   0.0147  0.3123  0.1558  -0.7343   0.0000   0.3741
  -1.400  -0.1036   0.00581   0.00067   0.0148  0.3097  0.1628  -0.7071   0.0000   0.3884
  -1.300  -0.0922   0.00577   0.00065   0.0148  0.3090  0.1711  -0.6811   0.0000   0.4062
  -1.200  -0.0807   0.00574   0.00064   0.0148  0.3079  0.1775  -0.6551   0.0000   0.4292
  -1.100  -0.0693   0.00570   0.00063   0.0148  0.3064  0.1866  -0.6513   0.0000   0.4596
  -1.000  -0.0579   0.00567   0.00062   0.0148  0.3046  0.1963  -0.6634   0.0000   0.5020
  -0.900  -0.0464   0.00564   0.00061   0.0148  0.3027  0.2045  -0.6757   0.0000   0.5653
  -0.800  -0.0350   0.00562   0.00060   0.0148  0.3004  0.2133  -0.6881   0.0000   0.6699
  -0.700  -0.0236   0.00558   0.00059   0.0148  0.2980  0.2247  -0.7004   0.0000   0.8751
  -0.600  -0.0122   0.00554   0.00058   0.0148  0.2966  0.2355  -0.7129   0.0000   1.4667
  -0.500  -0.0007   0.00551   0.00057   0.0148  0.2958  0.2455  -0.7254   0.0000  21.2429
  -0.400   0.0107   0.00547   0.00057   0.0148  0.2947  0.2563  -0.7379   0.0000  -1.1380
  -0.300   0.0222   0.00544   0.00056   0.0148  0.2932  0.2676  -0.7505   0.0000  -0.4248
  -0.200   0.0336   0.00541   0.00055   0.0149  0.2914  0.2793  -0.7631   0.0000  -0.1971
  -0.100   0.0450   0.00538   0.00055   0.0149  0.2893  0.2912  -0.7757   0.0000  -0.0849
   0.000   0.0564   0.00535   0.00054   0.0149  0.2868  0.3033  -0.7887   0.0000  -0.0181
   0.100   0.0678   0.00533   0.00054   0.0149  0.2844  0.3148  -0.8019   0.0000   0.0264
   0.200   0.0793   0.00530   0.00054   0.0149  0.2837  0.3249  -0.8152   0.0000   0.0582
   0.300   0.0908   0.00527   0.00054   0.0149  0.2828  0.3358  -0.8286   0.0000   0.0819
   0.400   0.1023   0.00524   0.00054   0.0149  0.2817  0.3477  -0.8419   0.0000   0.1002
   0.500   0.1137   0.00521   0.00054   0.0149  0.2803  0.3586  -0.8553   0.0000   0.1149
   0.600   0.1252   0.00520   0.00054   0.0149  0.2786  0.3678  -0.8688   0.0000   0.1269
   0.700   0.1367   0.00519   0.00054   0.0149  0.2766  0.3769  -0.8822   0.0000   0.1369
   0.800   0.1481   0.00518   0.00055   0.0149  0.2742  0.3867  -0.8957   0.0000   0.1453
   0.900   0.1596   0.00516   0.00055   0.0148  0.2720  0.3966  -0.9093   0.0000   0.1526
   1.000   0.1711   0.00514   0.00055   0.0148  0.2713  0.4068  -0.9233   0.0000   0.1588
   1.100   0.1826   0.00512   0.00056   0.0148  0.2703  0.4167  -0.9376   0.0000   0.1643
   1.200   0.1942   0.00511   0.00057   0.0148  0.2690  0.4246  -0.9519   0.0000   0.1692
   1.300   0.2057   0.00510   0.00057   0.0148  0.2676  0.4344  -0.9662   0.0000   0.1735
   1.400   0.2171   0.00508   0.00058   0.0148  0.2660  0.4449  -0.9805   0.0000   0.1773
   1.500   0.2286   0.00508   0.00059   0.0148  0.2642  0.4544  -0.9948   0.0000   0.1807
   1.600   0.2401   0.00507   0.00060   0.0148  0.2621  0.4645  -1.0092   0.0000   0.1838
   1.700   0.2516   0.00506   0.00061   0.0148  0.2601  0.4755  -1.0237   0.0000   0.1866
   1.800   0.2631   0.00504   0.00061   0.0148  0.2594  0.4864  -1.0382   0.0000   0.1892
   1.900   0.2746   0.00502   0.00062   0.0148  0.2586  0.4974  -1.0527   0.0000   0.1915
   2.000   0.2860   0.00501   0.00063   0.0148  0.2574  0.5087  -1.0674   0.0000   0.1937
   2.100   0.2975   0.00499   0.00064   0.0148  0.2559  0.5204  -1.0827   0.0000   0.1957
   2.200   0.3089   0.00498   0.00066   0.0148  0.2539  0.5331  -1.0979   0.0000   0.1975
   2.300   0.3203   0.00499   0.00068   0.0148  0.2493  0.5459  -1.1130   0.0000   0.1992
   2.400   0.3317   0.00498   0.00069   0.0148  0.2466  0.5593  -1.1284   0.0000   0.2007
   2.500   0.3431   0.00498   0.00071   0.0148  0.2428  0.5735  -1.1436   0.0000   0.2022
   2.600   0.3544   0.00497   0.00073   0.0148  0.2392  0.5892  -1.1589   0.0000   0.2035
   2.700   0.3657   0.00495   0.00074   0.0148  0.2367  0.6075  -1.1742   0.0000   0.2047
   2.800   0.3771   0.00491   0.00076   0.0148  0.2356  0.6288  -1.1897   0.0000   0.2059
   2.900   0.3883   0.00487   0.00077   0.0148  0.2339  0.6523  -1.2051   0.0000   0.2069
   3.000   0.3995   0.00484   0.00079   0.0148  0.2312  0.6763  -1.2204   0.0000   0.2079
   3.100   0.4107   0.00481   0.00082   0.0148  0.2279  0.7000  -1.2358   0.0000   0.2088
   3.200   0.4219   0.00478   0.00084   0.0149  0.2252  0.7224  -1.2519   0.0000   0.2096
   3.300   0.4331   0.00475   0.00086   0.0149  0.2237  0.7431  -1.2681   0.0000   0.2104
   3.400   0.4444   0.00473   0.00088   0.0149  0.2212  0.7618  -1.2844   0.0000   0.2112
   3.500   0.4555   0.00474   0.00091   0.0150  0.2178  0.7782  -1.3006   0.0000   0.2119
   3.600   0.4666   0.00473   0.00094   0.0150  0.2137  0.7973  -1.3167   0.0000   0.2125
   3.700   0.4778   0.00474   0.00097   0.0151  0.2094  0.8123  -1.3330   0.0000   0.2131
   3.800   0.4888   0.00476   0.00101   0.0151  0.2037  0.8272  -1.3492   0.0000   0.2136
   3.900   0.5000   0.00475   0.00104   0.0152  0.2017  0.8420  -1.3656   0.0000   0.2141
   4.000   0.5109   0.00480   0.00109   0.0153  0.1941  0.8554  -1.3817   0.0000   0.2146
   4.100   0.5219   0.00484   0.00114   0.0153  0.1877  0.8675  -1.3980   0.0000   0.2150
   4.200   0.5325   0.00487   0.00119   0.0155  0.1812  0.8823  -1.4140   0.0000   0.2152
   4.300   0.5434   0.00496   0.00125   0.0156  0.1719  0.8900  -1.4303   0.0000   0.2156
   4.400   0.5536   0.00507   0.00134   0.0157  0.1586  0.9044  -1.4464   0.0000   0.2158
   4.500   0.5635   0.00528   0.00149   0.0159  0.1373  0.9167  -1.4634   0.0000   0.2158
   4.600   0.5700   0.00646   0.00219   0.0163  0.0128  0.9233  -1.4879   0.0000   0.2155
   4.700   0.5806   0.00655   0.00228   0.0165  0.0054  0.9346  -1.5706   0.0000   0.2156
   4.800   0.5911   0.00659   0.00235   0.0167  0.0029  0.9469  -1.6476   0.0000   0.2157
   4.900   0.6020   0.00664   0.00240   0.0168  0.0025  0.9551  -1.7273   0.0000   0.2159
   5.000   0.6132   0.00670   0.00246   0.0169  0.0023  0.9593  -1.8092   0.0000   0.2163
   5.100   0.6249   0.00675   0.00252   0.0168  0.0022  0.9648  -1.8950   0.0000   0.2169
   5.200   0.6377   0.00681   0.00258   0.0164  0.0021  0.9730  -1.9872   0.0000   0.2179
   5.300   0.6506   0.00687   0.00264   0.0161  0.0020  0.9790  -2.0821   0.0000   0.2188
   5.400   0.6634   0.00693   0.00270   0.0158  0.0020  0.9836  -2.1784   0.0000   0.2197
   5.500   0.6759   0.00700   0.00276   0.0155  0.0020  0.9867  -2.2755   0.0000   0.2205
   5.600   0.6881   0.00706   0.00283   0.0153  0.0020  0.9889  -2.3730   0.0000   0.2211
   5.700   0.7002   0.00713   0.00289   0.0152  0.0019  0.9905  -2.4715   0.0000   0.2216
   5.800   0.7121   0.00720   0.00296   0.0150  0.0019  0.9918  -2.5709   0.0000   0.2221
   5.900   0.7240   0.00727   0.00303   0.0149  0.0019  0.9928  -2.6715   0.0000   0.2226
   6.000   0.7358   0.00734   0.00310   0.0148  0.0019  0.9936  -2.7731   0.0000   0.2230
   6.100   0.7476   0.00742   0.00317   0.0146  0.0019  0.9944  -2.8758   0.0000   0.2234
   6.200   0.7594   0.00750   0.00325   0.0145  0.0019  0.9950  -2.9796   0.0000   0.2237
   6.300   0.7711   0.00757   0.00333   0.0144  0.0019  0.9956  -3.0843   0.0000   0.2241
   6.400   0.7828   0.00766   0.00341   0.0143  0.0019  0.9961  -3.1900   0.0000   0.2244
   6.500   0.7945   0.00774   0.00350   0.0142  0.0019  0.9966  -3.2967   0.0000   0.2247
   6.600   0.8061   0.00782   0.00358   0.0141  0.0019  0.9970  -3.4043   0.0000   0.2250
   6.700   0.8177   0.00791   0.00367   0.0140  0.0019  0.9973  -3.5126   0.0000   0.2253
   6.800   0.8294   0.00801   0.00377   0.0139  0.0019  0.9976  -3.6216   0.0000   0.2255
   6.900   0.8410   0.00810   0.00387   0.0138  0.0019  0.9979  -3.7313   0.0000   0.2258
   7.000   0.8526   0.00820   0.00397   0.0137  0.0019  0.9981  -3.8416   0.0000   0.2260
   7.100   0.8643   0.00830   0.00408   0.0136  0.0019  0.9984  -3.9526   0.0000   0.2263
   7.200   0.8760   0.00841   0.00419   0.0135  0.0019  0.9986  -4.0638   0.0000   0.2265
   7.300   0.8878   0.00852   0.00431   0.0133  0.0020  0.9988  -4.1753   0.0000   0.2268
   7.400   0.8996   0.00864   0.00443   0.0132  0.0020  0.9990  -4.2869   0.0000   0.2271
   7.500   0.9114   0.00876   0.00457   0.0130  0.0020  0.9992  -4.3984   0.0000   0.2273
   7.600   0.9233   0.00889   0.00471   0.0128  0.0020  0.9993  -4.5096   0.0000   0.2276
   7.700   0.9351   0.00903   0.00486   0.0127  0.0020  0.9994  -4.6205   0.0000   0.2278
   7.800   0.9469   0.00918   0.00502   0.0125  0.0020  0.9995  -4.7306   0.0000   0.2281
   7.900   0.9586   0.00934   0.00519   0.0123  0.0020  0.9996  -4.8395   0.0000   0.2283
   8.000   0.9703   0.00951   0.00538   0.0122  0.0021  0.9997  -4.9505   0.0000   0.2285
   8.100   0.9819   0.00969   0.00558   0.0120  0.0021  0.9998  -5.0613   0.0000   0.2287
   8.200   0.9934   0.00988   0.00580   0.0118  0.0021  0.9999  -5.1704   0.0000   0.2289
   8.300   1.0049   0.01010   0.00603   0.0117  0.0021  0.9999  -5.2776   0.0000   0.2291
   8.400   1.0163   0.01033   0.00628   0.0115  0.0021  1.0000  -5.3831   0.0000   0.2292
   8.500   1.0263   0.01057   0.00655   0.0117  0.0022  1.0000  -5.4807   0.0000   0.2291
   8.600   1.0354   0.01082   0.00683   0.0120  0.0022  1.0000  -5.5720   0.0000   0.2288
   8.700   1.0443   0.01109   0.00713   0.0123  0.0022  1.0000  -5.6588   0.0000   0.2285
   8.800   1.0530   0.01139   0.00746   0.0126  0.0023  1.0000  -5.7422   0.0000   0.2281
   8.900   1.0614   0.01172   0.00783   0.0130  0.0023  1.0000  -5.8214   0.0000   0.2278
   9.000   1.0695   0.01208   0.00822   0.0134  0.0024  1.0000  -5.8960   0.0000   0.2274
   9.100   1.0774   0.01245   0.00863   0.0138  0.0024  1.0000  -5.9712   0.0000   0.2269
   9.200   1.0854   0.01278   0.00898   0.0142  0.0024  1.0000  -6.0606   0.0000   0.2265
   9.300   1.0934   0.01309   0.00932   0.0146  0.0024  1.0000  -6.1551   0.0000   0.2261
   9.400   1.1012   0.01341   0.00966   0.0150  0.0024  1.0000  -6.2499   0.0000   0.2257
   9.500   1.1087   0.01376   0.01003   0.0155  0.0024  1.0000  -6.3408   0.0000   0.2253
   9.600   1.1155   0.01416   0.01046   0.0160  0.0025  1.0000  -6.4184   0.0000   0.2248
   9.700   1.1211   0.01471   0.01105   0.0166  0.0025  1.0000  -6.4662   0.0000   0.2242
   9.800   1.1256   0.01536   0.01175   0.0173  0.0026  1.0000  -6.4939   0.0000   0.2235
  10.100   1.1037   0.02098   0.01758   0.0230  0.0029  1.0000  -5.9643   0.0000   0.2177
  10.200   1.1089   0.02144   0.01806   0.0236  0.0029  1.0000  -6.0512   0.0000   0.2171
  10.300   1.1140   0.02191   0.01854   0.0242  0.0029  1.0000  -6.1374   0.0000   0.2165
  10.400   1.1189   0.02238   0.01904   0.0249  0.0029  1.0000  -6.2226   0.0000   0.2159
  10.500   1.1236   0.02287   0.01955   0.0255  0.0029  1.0000  -6.3068   0.0000   0.2152
  10.600   1.1281   0.02337   0.02007   0.0262  0.0029  1.0000  -6.3897   0.0000   0.2146
  10.700   1.1323   0.02387   0.02060   0.0268  0.0029  1.0000  -6.4711   0.0000   0.2140
  10.800   1.1363   0.02440   0.02114   0.0275  0.0029  1.0000  -6.5508   0.0000   0.2133
  10.900   1.1401   0.02495   0.02171   0.0282  0.0029  1.0000  -6.6299   0.0000   0.2127
  11.000   1.1393   0.02541   0.02220   0.0296  0.0029  1.0000  -6.6819   0.0000   0.2113
  11.100   1.1369   0.02584   0.02266   0.0313  0.0029  1.0000  -6.7249   0.0000   0.2096
  11.200   1.1364   0.02635   0.02319   0.0325  0.0029  1.0000  -6.7773   0.0000   0.2084
  11.300   1.1358   0.02693   0.02380   0.0334  0.0029  1.0000  -6.8283   0.0000   0.2074
  11.400   1.1355   0.02758   0.02448   0.0340  0.0029  1.0000  -6.8797   0.0000   0.2067
  11.500   1.1354   0.02830   0.02523   0.0344  0.0029  1.0000  -6.9307   0.0000   0.2062
  11.600   1.1355   0.02909   0.02605   0.0345  0.0029  1.0000  -6.9811   0.0000   0.2060
  11.700   1.1358   0.02992   0.02692   0.0345  0.0029  1.0000  -7.0315   0.0000   0.2058
  11.800   1.1362   0.03079   0.02782   0.0344  0.0029  1.0000  -7.0824   0.0000   0.2058
  11.900   1.1367   0.03170   0.02876   0.0342  0.0029  1.0000  -7.1335   0.0000   0.2058
  12.000   1.1373   0.03264   0.02972   0.0340  0.0029  1.0000  -7.1842   0.0000   0.2059
  12.100   1.1378   0.03359   0.03072   0.0337  0.0029  1.0000  -7.2343   0.0000   0.2059
  12.200   1.1382   0.03457   0.03173   0.0335  0.0029  1.0000  -7.2832   0.0000   0.2059
  12.300   1.1383   0.03557   0.03276   0.0333  0.0029  1.0000  -7.3306   0.0000   0.2060
  12.400   1.1383   0.03659   0.03381   0.0330  0.0029  1.0000  -7.3762   0.0000   0.2060
  12.500   1.1380   0.03762   0.03487   0.0328  0.0029  1.0000  -7.4195   0.0000   0.2060
  12.600   1.1375   0.03868   0.03596   0.0325  0.0029  1.0000  -7.4611   0.0000   0.2061
  12.700   1.1368   0.03977   0.03708   0.0323  0.0029  1.0000  -7.5011   0.0000   0.2061
  12.800   1.1359   0.04089   0.03823   0.0320  0.0029  1.0000  -7.5392   0.0000   0.2062
  12.900   1.1348   0.04205   0.03942   0.0316  0.0029  1.0000  -7.5749   0.0000   0.2063
  13.000   1.1335   0.04323   0.04064   0.0312  0.0029  1.0000  -7.6086   0.0000   0.2064
  13.100   1.1320   0.04444   0.04188   0.0309  0.0029  1.0000  -7.6409   0.0000   0.2065
  13.200   1.1302   0.04567   0.04314   0.0305  0.0029  1.0000  -7.6701   0.0000   0.2067
  13.300   1.1281   0.04694   0.04444   0.0300  0.0029  1.0000  -7.6968   0.0000   0.2068
  13.400   1.1260   0.04823   0.04576   0.0296  0.0029  1.0000  -7.7228   0.0000   0.2070
  13.500   1.1236   0.04957   0.04714   0.0290  0.0029  1.0000  -7.7457   0.0000   0.2072
  13.600   1.1210   0.05094   0.04855   0.0285  0.0029  1.0000  -7.7668   0.0000   0.2074
  13.700   1.1184   0.05234   0.04997   0.0279  0.0029  1.0000  -7.7871   0.0000   0.2077
  13.800   1.1153   0.05379   0.05146   0.0273  0.0029  1.0000  -7.8031   0.0000   0.2080
  13.900   1.1122   0.05523   0.05293   0.0267  0.0029  1.0000  -7.8188   0.0000   0.2083
  14.000   1.1089   0.05673   0.05447   0.0261  0.0029  1.0000  -7.8312   0.0000   0.2086
  14.100   1.1054   0.05827   0.05604   0.0254  0.0029  1.0000  -7.8421   0.0000   0.2090
  14.200   1.1019   0.05983   0.05763   0.0247  0.0029  1.0000  -7.8522   0.0000   0.2093
  14.300   1.0980   0.06146   0.05930   0.0239  0.0029  1.0000  -7.8581   0.0000   0.2098
  14.400   1.0943   0.06308   0.06095   0.0231  0.0029  1.0000  -7.8653   0.0000   0.2102
  14.500   1.0901   0.06477   0.06268   0.0223  0.0029  1.0000  -7.8667   0.0000   0.2107
  14.600   1.0863   0.06649   0.06442   0.0214  0.0029  1.0000  -7.8712   0.0000   0.2112
  14.700   1.0821   0.06831   0.06628   0.0205  0.0029  1.0000  -7.8709   0.0000   0.2119
  14.800   1.0783   0.07013   0.06813   0.0195  0.0029  1.0000  -7.8725   0.0000   0.2125
  14.900   1.0741   0.07204   0.07007   0.0185  0.0028  1.0000  -7.8695   0.0000   0.2132
  15.000   1.0700   0.07395   0.07202   0.0175  0.0028  1.0000  -7.8674   0.0000   0.2139
  15.100   1.0656   0.07592   0.07403   0.0164  0.0028  1.0000  -7.8614   0.0000   0.2146
  15.200   1.0613   0.07791   0.07605   0.0154  0.0028  1.0000  -7.8551   0.0000   0.2154
  15.300   1.0569   0.07997   0.07813   0.0142  0.0028  1.0000  -7.8462   0.0000   0.2162
  15.400   1.0524   0.08205   0.08025   0.0131  0.0028  1.0000  -7.8364   0.0000   0.2171
  15.500   1.0479   0.08418   0.08241   0.0119  0.0028  1.0000  -7.8245   0.0000   0.2180
  15.600   1.0433   0.08634   0.08461   0.0107  0.0028  1.0000  -7.8112   0.0000   0.2189
  15.700   1.0387   0.08853   0.08684   0.0094  0.0028  1.0000  -7.7961   0.0000   0.2199
  15.800   1.0340   0.09075   0.08909   0.0082  0.0028  1.0000  -7.7791   0.0000   0.2209
  15.900   1.0293   0.09301   0.09138   0.0069  0.0028  1.0000  -7.7606   0.0000   0.2219
  16.000   1.0245   0.09530   0.09370   0.0056  0.0028  1.0000  -7.7404   0.0000   0.2230
  16.100   1.0198   0.09763   0.09606   0.0042  0.0028  1.0000  -7.7188   0.0000   0.2241
  16.200   1.0150   0.09998   0.09844   0.0029  0.0028  1.0000  -7.6954   0.0000   0.2253
  16.300   1.0102   0.10235   0.10084   0.0015  0.0028  1.0000  -7.6705   0.0000   0.2265
  16.400   1.0053   0.10475   0.10327   0.0001  0.0028  1.0000  -7.6432   0.0000   0.2277
  16.500   1.0005   0.10715   0.10571  -0.0014  0.0028  1.0000  -7.6150   0.0000   0.2290
  16.600   0.9957   0.10961   0.10820  -0.0028  0.0028  1.0000  -7.5838   0.0000   0.2303
  16.700   0.9909   0.11206   0.11068  -0.0043  0.0028  1.0000  -7.5526   0.0000   0.2317
  16.800   0.9860   0.11458   0.11323  -0.0059  0.0028  1.0000  -7.5173   0.0000   0.2331
  16.900   0.9814   0.11706   0.11574  -0.0074  0.0028  1.0000  -7.4829   0.0000   0.2345
  17.000   0.9763   0.11963   0.11835  -0.0090  0.0028  1.0000  -7.4423   0.0000   0.2361
  17.100   0.9717   0.12213   0.12087  -0.0105  0.0028  1.0000  -7.4045   0.0000   0.2376
  17.200   0.9666   0.12477   0.12355  -0.0122  0.0028  1.0000  -7.3582   0.0000   0.2392
  17.300   0.9621   0.12730   0.12610  -0.0137  0.0028  1.0000  -7.3170   0.0000   0.2408
  17.400   0.9569   0.13002   0.12885  -0.0155  0.0028  1.0000  -7.2647   0.0000   0.2426
  17.500   0.9523   0.13260   0.13146  -0.0171  0.0028  1.0000  -7.2177   0.0000   0.2442
  17.600   0.9472   0.13536   0.13425  -0.0189  0.0028  1.0000  -7.1602   0.0000   0.2461
  17.700   0.9423   0.13805   0.13697  -0.0206  0.0028  1.0000  -7.1037   0.0000   0.2479
  17.800   0.9374   0.14080   0.13974  -0.0223  0.0028  1.0000  -7.0427   0.0000   0.2498
  17.900   0.9322   0.14364   0.14261  -0.0242  0.0028  1.0000  -6.9747   0.0000   0.2518
  18.000   0.9275   0.14639   0.14540  -0.0259  0.0028  1.0000  -6.9095   0.0000   0.2538
  18.100   0.9221   0.14935   0.14838  -0.0278  0.0028  1.0000  -6.8305   0.0000   0.2560
  18.200   0.9170   0.15229   0.15136  -0.0297  0.0028  1.0000  -6.7490   0.0000   0.2582
  18.300   0.9120   0.15522   0.15431  -0.0316  0.0028  1.0000  -6.6660   0.0000   0.2604
  18.400   0.9064   0.15835   0.15747  -0.0336  0.0028  1.0000  -6.5667   0.0000   0.2628
  18.500   0.9007   0.16156   0.16070  -0.0356  0.0028  1.0000  -6.4583   0.0000   0.2653
  18.600   0.8950   0.16485   0.16403  -0.0377  0.0028  1.0000  -6.3394   0.0000   0.2679
  18.700   0.8889   0.16833   0.16753  -0.0399  0.0028  1.0000  -6.2033   0.0000   0.2707
  18.800   0.8821   0.17210   0.17133  -0.0422  0.0028  1.0000  -6.0375   0.0000   0.2738
  18.900   0.8742   0.17637   0.17564  -0.0448  0.0028  1.0000  -5.8233   0.0000   0.2773
  19.000   0.8623   0.18222   0.18153  -0.0481  0.0028  1.0000  -5.4532   0.0000   0.2822


