xflr5 v6.47

 Calculated polar for: 763ER

 1 1 Reynolds number fixed          Mach number fixed         

 xtrf =   1.000 (top)        1.000 (bottom)
 Mach =   0.000     Re =     4.000 e 6     Ncrit =   9.000

  alpha     CL        CD       CDp       Cm    Top Xtr Bot Xtr   Cpmin    Chinge    XCp    
 ------- -------- --------- --------- -------- ------- ------- -------- --------- ---------
 -24.100  -0.8756   0.22412   0.22321   0.0753  1.0000  0.0033  -7.5917   0.0000   0.3081
 -24.000  -0.8778   0.22187   0.22095   0.0741  1.0000  0.0035  -7.7620   0.0000   0.3063
 -23.900  -0.8843   0.21845   0.21751   0.0723  1.0000  0.0037  -8.1093   0.0000   0.3034
 -23.800  -0.8843   0.21690   0.21597   0.0713  1.0000  0.0038  -8.1597   0.0000   0.3023
 -23.700  -0.8837   0.21553   0.21459   0.0704  1.0000  0.0039  -8.1843   0.0000   0.3015
 -23.600  -0.8830   0.21416   0.21322   0.0695  1.0000  0.0040  -8.2062   0.0000   0.3006
 -23.500  -0.8889   0.21108   0.21012   0.0678  1.0000  0.0041  -8.4828   0.0000   0.2979
 -23.400  -0.8896   0.20935   0.20838   0.0667  1.0000  0.0042  -8.5536   0.0000   0.2967
 -23.300  -0.8895   0.20787   0.20690   0.0658  1.0000  0.0042  -8.5855   0.0000   0.2957
 -23.200  -0.8892   0.20642   0.20545   0.0648  1.0000  0.0043  -8.6106   0.0000   0.2947
 -23.100  -0.8892   0.20488   0.20390   0.0638  1.0000  0.0044  -8.6481   0.0000   0.2937
 -23.000  -0.8955   0.20183   0.20083   0.0620  1.0000  0.0044  -8.9023   0.0000   0.2910
 -22.900  -0.8958   0.20024   0.19923   0.0609  1.0000  0.0045  -8.9432   0.0000   0.2899
 -22.800  -0.8957   0.19875   0.19774   0.0600  1.0000  0.0045  -8.9670   0.0000   0.2889
 -22.700  -0.8956   0.19727   0.19625   0.0590  1.0000  0.0046  -8.9892   0.0000   0.2879
 -22.600  -0.8964   0.19558   0.19454   0.0579  1.0000  0.0046  -9.0400   0.0000   0.2867
 -22.500  -0.9017   0.19284   0.19179   0.0562  1.0000  0.0047  -9.2338   0.0000   0.2843
 -22.400  -0.9021   0.19126   0.19020   0.0551  1.0000  0.0047  -9.2642   0.0000   0.2832
 -22.300  -0.9022   0.18976   0.18868   0.0541  1.0000  0.0047  -9.2828   0.0000   0.2822
 -22.200  -0.9023   0.18822   0.18713   0.0531  1.0000  0.0047  -9.3044   0.0000   0.2812
 -22.100  -0.9041   0.18633   0.18523   0.0518  1.0000  0.0048  -9.3710   0.0000   0.2797
 -22.000  -0.9088   0.18378   0.18267   0.0502  1.0000  0.0048  -9.5241   0.0000   0.2776
 -21.900  -0.9094   0.18215   0.18102   0.0491  1.0000  0.0048  -9.5522   0.0000   0.2765
 -21.800  -0.9100   0.18052   0.17938   0.0480  1.0000  0.0048  -9.5786   0.0000   0.2754
 -21.700  -0.9109   0.17882   0.17767   0.0468  1.0000  0.0048  -9.6128   0.0000   0.2742
 -21.600  -0.9166   0.17610   0.17493   0.0451  1.0000  0.0049  -9.7772   0.0000   0.2719
 -21.500  -0.9184   0.17422   0.17304   0.0438  1.0000  0.0049  -9.8293   0.0000   0.2705
 -21.400  -0.9198   0.17243   0.17124   0.0426  1.0000  0.0049  -9.8693   0.0000   0.2693
 -21.300  -0.9213   0.17062   0.16941   0.0414  1.0000  0.0049  -9.9097   0.0000   0.2680
 -21.200  -0.9274   0.16784   0.16661   0.0396  1.0000  0.0049  -10.0700   0.0000   0.2657
 -21.100  -0.9312   0.16556   0.16432   0.0381  1.0000  0.0049  -10.1626   0.0000   0.2640
 -21.000  -0.9336   0.16357   0.16231   0.0368  1.0000  0.0049  -10.2179   0.0000   0.2626
 -20.900  -0.9371   0.16134   0.16007   0.0353  1.0000  0.0049  -10.3006   0.0000   0.2609
 -20.800  -0.9466   0.15793   0.15662   0.0330  1.0000  0.0049  -10.5249   0.0000   0.2581
 -20.700  -0.9509   0.15557   0.15425   0.0314  1.0000  0.0049  -10.6170   0.0000   0.2564
 -20.600  -0.9633   0.15160   0.15024   0.0288  1.0000  0.0049  -10.8973   0.0000   0.2532
 -20.500  -0.9701   0.14876   0.14738   0.0269  1.0000  0.0049  -11.0386   0.0000   0.2510
 -20.400  -0.9873   0.14391   0.14248   0.0236  1.0000  0.0049  -11.4093   0.0000   0.2472
 -20.300  -1.0093   0.13819   0.13671   0.0197  1.0000  0.0049  -11.8736   0.0000   0.2427
 -20.200  -1.0403   0.13083   0.12927   0.0146  1.0000  0.0049  -12.5109   0.0000   0.2371
 -20.100  -1.2244   0.09613   0.09415  -0.0097  1.0000  0.0046  -16.1293   0.0000   0.2143
 -20.000  -1.3117   0.07981   0.07758  -0.0208  1.0000  0.0044  -17.6753   0.0000   0.2064
 -19.900  -1.3524   0.07184   0.06949  -0.0260  1.0000  0.0043  -18.3265   0.0000   0.2032
 -19.800  -1.3816   0.06598   0.06354  -0.0298  1.0000  0.0043  -18.7572   0.0000   0.2011
 -19.700  -1.4042   0.06132   0.05878  -0.0327  1.0000  0.0043  -19.0618   0.0000   0.1996
 -19.600  -1.4226   0.05741   0.05481  -0.0351  1.0000  0.0042  -19.2869   0.0000   0.1985
 -19.500  -1.4383   0.05401   0.05135  -0.0371  1.0000  0.0042  -19.4609   0.0000   0.1976
 -19.400  -1.4518   0.05102   0.04829  -0.0388  1.0000  0.0042  -19.5946   0.0000   0.1970
 -19.300  -1.4638   0.04834   0.04555  -0.0402  1.0000  0.0042  -19.6960   0.0000   0.1965
 -19.200  -1.4743   0.04592   0.04308  -0.0414  1.0000  0.0042  -19.7715   0.0000   0.1961
 -19.100  -1.4838   0.04373   0.04085  -0.0424  1.0000  0.0042  -19.8256   0.0000   0.1959
 -19.000  -1.4924   0.04174   0.03880  -0.0432  1.0000  0.0042  -19.8625   0.0000   0.1957
 -18.900  -1.5003   0.03992   0.03694  -0.0438  1.0000  0.0042  -19.8853   0.0000   0.1957
 -18.800  -1.5076   0.03825   0.03523  -0.0442  1.0000  0.0042  -19.8960   0.0000   0.1958
 -18.700  -1.5144   0.03674   0.03367  -0.0445  1.0000  0.0042  -19.8954   0.0000   0.1960
 -18.600  -1.5207   0.03535   0.03225  -0.0445  1.0000  0.0043  -19.8849   0.0000   0.1963
 -18.500  -1.5265   0.03409   0.03094  -0.0445  1.0000  0.0043  -19.8647   0.0000   0.1967
 -18.400  -1.5320   0.03293   0.02975  -0.0442  1.0000  0.0043  -19.8372   0.0000   0.1972
 -18.300  -1.5371   0.03187   0.02865  -0.0438  1.0000  0.0043  -19.8012   0.0000   0.1978
 -18.200  -1.5418   0.03090   0.02765  -0.0433  1.0000  0.0043  -19.7583   0.0000   0.1984
 -18.100  -1.5462   0.03001   0.02672  -0.0427  1.0000  0.0043  -19.7095   0.0000   0.1991
 -18.000  -1.5502   0.02920   0.02588  -0.0419  1.0000  0.0044  -19.6538   0.0000   0.1998
 -17.900  -1.5537   0.02846   0.02511  -0.0411  1.0000  0.0044  -19.5903   0.0000   0.2006
 -17.800  -1.5571   0.02776   0.02439  -0.0402  1.0000  0.0044  -19.5236   0.0000   0.2015
 -17.700  -1.5604   0.02711   0.02371  -0.0392  1.0000  0.0044  -19.4543   0.0000   0.2024
 -17.600  -1.5628   0.02653   0.02310  -0.0381  1.0000  0.0044  -19.3726   0.0000   0.2033
 -17.500  -1.5657   0.02597   0.02251  -0.0369  1.0000  0.0045  -19.2961   0.0000   0.2043
 -17.400  -1.5674   0.02548   0.02199  -0.0358  1.0000  0.0045  -19.2038   0.0000   0.2052
 -17.300  -1.5698   0.02500   0.02148  -0.0345  1.0000  0.0045  -19.1198   0.0000   0.2063
 -17.200  -1.5709   0.02458   0.02104  -0.0332  1.0000  0.0045  -19.0192   0.0000   0.2073
 -17.100  -1.5725   0.02418   0.02061  -0.0318  1.0000  0.0046  -18.9241   0.0000   0.2084
 -17.000  -1.5740   0.02379   0.02019  -0.0304  1.0000  0.0046  -18.8270   0.0000   0.2095
 -16.900  -1.5745   0.02343   0.01981  -0.0290  1.0000  0.0046  -18.7163   0.0000   0.2105
 -16.800  -1.5758   0.02310   0.01945  -0.0274  1.0000  0.0046  -18.6160   0.0000   0.2117
 -16.700  -1.5769   0.02278   0.01911  -0.0258  1.0000  0.0046  -18.5129   0.0000   0.2129
 -16.600  -1.5763   0.02249   0.01880  -0.0243  1.0000  0.0047  -18.3888   0.0000   0.2140
 -16.500  -1.5760   0.02222   0.01851  -0.0228  1.0000  0.0047  -18.2684   0.0000   0.2152
 -16.400  -1.5767   0.02198   0.01824  -0.0210  1.0000  0.0047  -18.1589   0.0000   0.2165
 -16.300  -1.5793   0.02176   0.01800  -0.0189  1.0000  0.0047  -18.0705   0.0000   0.2180
 -16.200  -1.5806   0.02155   0.01776  -0.0169  1.0000  0.0047  -17.9678   0.0000   0.2194
 -16.100  -1.5770   0.02129   0.01749  -0.0158  1.0000  0.0048  -17.8101   0.0000   0.2203
 -16.000  -1.5726   0.02104   0.01722  -0.0149  1.0000  0.0048  -17.6440   0.0000   0.2210
 -15.900  -1.5678   0.02080   0.01696  -0.0140  1.0000  0.0048  -17.4737   0.0000   0.2217
 -15.800  -1.5626   0.02056   0.01670  -0.0132  1.0000  0.0048  -17.2998   0.0000   0.2224
 -15.700  -1.5571   0.02032   0.01645  -0.0124  1.0000  0.0048  -17.1228   0.0000   0.2230
 -15.600  -1.5513   0.02009   0.01620  -0.0116  1.0000  0.0049  -16.9432   0.0000   0.2237
 -15.500  -1.5452   0.01986   0.01595  -0.0109  1.0000  0.0049  -16.7612   0.0000   0.2243
 -15.400  -1.5388   0.01964   0.01571  -0.0103  1.0000  0.0049  -16.5772   0.0000   0.2249
 -15.300  -1.5322   0.01942   0.01547  -0.0096  1.0000  0.0049  -16.3916   0.0000   0.2254
 -15.200  -1.5254   0.01920   0.01524  -0.0090  1.0000  0.0049  -16.2045   0.0000   0.2260
 -15.100  -1.5185   0.01899   0.01501  -0.0084  1.0000  0.0049  -16.0163   0.0000   0.2265
 -15.000  -1.5116   0.01876   0.01477  -0.0078  1.0000  0.0050  -15.8306   0.0000   0.2270
 -14.900  -1.5051   0.01849   0.01447  -0.0072  1.0000  0.0051  -15.6530   0.0000   0.2276
 -14.800  -1.4984   0.01822   0.01419  -0.0065  1.0000  0.0052  -15.4732   0.0000   0.2282
 -14.700  -1.4914   0.01796   0.01391  -0.0060  1.0000  0.0053  -15.2914   0.0000   0.2287
 -14.600  -1.4842   0.01772   0.01365  -0.0054  1.0000  0.0054  -15.1080   0.0000   0.2293
 -14.500  -1.4768   0.01748   0.01339  -0.0049  1.0000  0.0055  -14.9229   0.0000   0.2298
 -14.400  -1.4692   0.01725   0.01315  -0.0043  1.0000  0.0056  -14.7364   0.0000   0.2303
 -14.300  -1.4615   0.01702   0.01291  -0.0039  1.0000  0.0057  -14.5490   0.0000   0.2308
 -14.200  -1.4536   0.01680   0.01268  -0.0034  1.0000  0.0058  -14.3609   0.0000   0.2312
 -14.100  -1.4455   0.01659   0.01245  -0.0029  1.0000  0.0059  -14.1723   0.0000   0.2317
 -14.000  -1.4373   0.01638   0.01223  -0.0025  1.0000  0.0060  -13.9833   0.0000   0.2322
 -13.900  -1.4290   0.01618   0.01202  -0.0021  1.0000  0.0061  -13.7935   0.0000   0.2326
 -13.800  -1.4205   0.01599   0.01182  -0.0017  1.0000  0.0062  -13.6036   0.0000   0.2330
 -13.700  -1.4119   0.01580   0.01162  -0.0013  1.0000  0.0062  -13.4136   0.0000   0.2335
 -13.600  -1.4032   0.01561   0.01143  -0.0009  1.0000  0.0063  -13.2237   0.0000   0.2339
 -13.500  -1.3944   0.01543   0.01124  -0.0006  1.0000  0.0064  -13.0339   0.0000   0.2343
 -13.400  -1.3856   0.01526   0.01105  -0.0002  1.0000  0.0065  -12.8443   0.0000   0.2347
 -13.300  -1.3766   0.01509   0.01087   0.0001  1.0000  0.0065  -12.6551   0.0000   0.2351
 -13.200  -1.3675   0.01492   0.01070   0.0004  1.0000  0.0066  -12.4660   0.0000   0.2355
 -13.100  -1.3583   0.01476   0.01053   0.0008  1.0000  0.0067  -12.2773   0.0000   0.2359
 -13.000  -1.3491   0.01461   0.01036   0.0011  1.0000  0.0067  -12.0888   0.0000   0.2363
 -12.900  -1.3397   0.01446   0.01020   0.0014  1.0000  0.0068  -11.9007   0.0000   0.2367
 -12.800  -1.3303   0.01431   0.01004   0.0016  1.0000  0.0068  -11.7132   0.0000   0.2371
 -12.700  -1.3208   0.01417   0.00989   0.0019  1.0000  0.0069  -11.5262   0.0000   0.2374
 -12.600  -1.3113   0.01403   0.00974   0.0022  1.0000  0.0069  -11.3399   0.0000   0.2378
 -12.500  -1.3017   0.01389   0.00960   0.0024  1.0000  0.0069  -11.1544   0.0000   0.2382
 -12.400  -1.2920   0.01376   0.00946   0.0027  1.0000  0.0069  -10.9698   0.0000   0.2385
 -12.300  -1.2828   0.01356   0.00925   0.0030  1.0000  0.0071  -10.7939   0.0000   0.2390
 -12.200  -1.2736   0.01337   0.00904   0.0033  1.0000  0.0073  -10.6186   0.0000   0.2394
 -12.100  -1.2642   0.01318   0.00885   0.0036  1.0000  0.0075  -10.4429   0.0000   0.2398
 -12.000  -1.2547   0.01301   0.00867   0.0039  1.0000  0.0077  -10.2669   0.0000   0.2402
 -11.900  -1.2451   0.01285   0.00850   0.0042  1.0000  0.0079  -10.0910   0.0000   0.2405
 -11.800  -1.2355   0.01269   0.00834   0.0044  1.0000  0.0081  -9.9155   0.0000   0.2409
 -11.700  -1.2257   0.01254   0.00818   0.0047  1.0000  0.0082  -9.7404   0.0000   0.2413
 -11.600  -1.2159   0.01239   0.00803   0.0049  1.0000  0.0084  -9.5658   0.0000   0.2417
 -11.500  -1.2060   0.01225   0.00789   0.0051  1.0000  0.0085  -9.3920   0.0000   0.2420
 -11.400  -1.1960   0.01212   0.00775   0.0054  1.0000  0.0086  -9.2190   0.0000   0.2424
 -11.300  -1.1880   0.01252   0.00759   0.0060  0.7311  0.0088  -9.0673   0.0000   0.2431
 -11.200  -1.1781   0.01247   0.00744   0.0062  0.6906  0.0089  -8.9296   0.0000   0.2434
 -11.100  -1.1681   0.01239   0.00731   0.0064  0.6712  0.0090  -8.7911   0.0000   0.2438
 -11.000  -1.1580   0.01230   0.00718   0.0066  0.6578  0.0091  -8.6528   0.0000   0.2441
 -10.900  -1.1478   0.01221   0.00706   0.0068  0.6474  0.0091  -8.5149   0.0000   0.2445
 -10.800  -1.1376   0.01212   0.00694   0.0069  0.6385  0.0092  -8.3775   0.0000   0.2448
 -10.700  -1.1273   0.01202   0.00682   0.0071  0.6315  0.0093  -8.2406   0.0000   0.2452
 -10.600  -1.1170   0.01193   0.00671   0.0073  0.6246  0.0093  -8.1042   0.0000   0.2455
 -10.500  -1.1067   0.01183   0.00658   0.0075  0.6184  0.0094  -7.9708   0.0000   0.2459
 -10.400  -1.0967   0.01168   0.00641   0.0077  0.6125  0.0097  -7.8417   0.0000   0.2462
 -10.200  -1.0763   0.01143   0.00613   0.0081  0.6013  0.0104  -7.5818   0.0000   0.2470
 -10.100  -1.0660   0.01132   0.00599   0.0083  0.5957  0.0107  -7.4517   0.0000   0.2474
 -10.000  -1.0557   0.01121   0.00587   0.0084  0.5906  0.0109  -7.3218   0.0000   0.2477
  -9.900  -1.0453   0.01110   0.00576   0.0086  0.5860  0.0111  -7.1922   0.0000   0.2481
  -9.800  -1.0348   0.01101   0.00565   0.0087  0.5809  0.0114  -7.0632   0.0000   0.2484
  -9.700  -1.0243   0.01092   0.00554   0.0089  0.5762  0.0116  -6.9347   0.0000   0.2488
  -9.600  -1.0137   0.01083   0.00544   0.0090  0.5717  0.0117  -6.8067   0.0000   0.2491
  -9.500  -1.0031   0.01075   0.00534   0.0092  0.5665  0.0119  -6.6792   0.0000   0.2495
  -9.400  -0.9925   0.01068   0.00525   0.0093  0.5619  0.0120  -6.5521   0.0000   0.2498
  -9.300  -0.9817   0.01061   0.00517   0.0094  0.5576  0.0121  -6.4256   0.0000   0.2502
  -9.200  -0.9713   0.01049   0.00503   0.0096  0.5527  0.0126  -6.3049   0.0000   0.2506
  -9.100  -0.9609   0.01037   0.00490   0.0097  0.5483  0.0132  -6.1843   0.0000   0.2509
  -9.000  -0.9503   0.01027   0.00479   0.0099  0.5446  0.0136  -6.0632   0.0000   0.2513
  -8.900  -0.9397   0.01017   0.00469   0.0100  0.5400  0.0140  -5.9476   0.0000   0.2517
  -8.700  -0.9183   0.01001   0.00450   0.0103  0.5315  0.0147  -5.7238   0.0000   0.2524
  -8.600  -0.9075   0.00993   0.00441   0.0104  0.5273  0.0149  -5.6129   0.0000   0.2528
  -8.500  -0.8967   0.00987   0.00432   0.0105  0.5226  0.0151  -5.5026   0.0000   0.2532
  -8.400  -0.8858   0.00980   0.00424   0.0106  0.5189  0.0152  -5.3928   0.0000   0.2535
  -8.300  -0.8750   0.00972   0.00415   0.0107  0.5153  0.0155  -5.2849   0.0000   0.2539
  -8.200  -0.8643   0.00962   0.00404   0.0108  0.5112  0.0162  -5.1800   0.0000   0.2543
  -8.000  -0.8428   0.00944   0.00385   0.0111  0.5034  0.0173  -4.9693   0.0000   0.2551
  -7.900  -0.8320   0.00937   0.00376   0.0112  0.4996  0.0178  -4.8644   0.0000   0.2555
  -7.800  -0.8211   0.00930   0.00368   0.0113  0.4954  0.0182  -4.7600   0.0000   0.2559
  -7.700  -0.8101   0.00924   0.00361   0.0114  0.4912  0.0186  -4.6561   0.0000   0.2563
  -7.600  -0.7991   0.00918   0.00354   0.0115  0.4884  0.0188  -4.5526   0.0000   0.2567
  -7.500  -0.7882   0.00910   0.00345   0.0116  0.4849  0.0194  -4.4515   0.0000   0.2572
  -7.400  -0.7774   0.00902   0.00336   0.0117  0.4809  0.0204  -4.3520   0.0000   0.2576
  -7.300  -0.7665   0.00894   0.00327   0.0118  0.4767  0.0211  -4.2525   0.0000   0.2580
  -7.200  -0.7555   0.00887   0.00320   0.0119  0.4740  0.0217  -4.1533   0.0000   0.2585
  -7.100  -0.7445   0.00881   0.00313   0.0120  0.4705  0.0223  -4.0547   0.0000   0.2589
  -7.000  -0.7335   0.00876   0.00306   0.0120  0.4668  0.0227  -3.9625   0.0000   0.2593
  -6.800  -0.7114   0.00862   0.00292   0.0122  0.4603  0.0243  -3.7855   0.0000   0.2603
  -6.700  -0.7005   0.00855   0.00284   0.0123  0.4574  0.0253  -3.6981   0.0000   0.2607
  -6.600  -0.6894   0.00848   0.00277   0.0124  0.4539  0.0262  -3.6110   0.0000   0.2612
  -6.500  -0.6783   0.00843   0.00271   0.0124  0.4499  0.0268  -3.5244   0.0000   0.2617
  -6.400  -0.6672   0.00839   0.00265   0.0125  0.4469  0.0273  -3.4382   0.0000   0.2622
  -6.300  -0.6562   0.00831   0.00258   0.0126  0.4443  0.0289  -3.3541   0.0000   0.2627
  -6.200  -0.6451   0.00824   0.00251   0.0127  0.4413  0.0303  -3.2703   0.0000   0.2633
  -6.100  -0.6340   0.00819   0.00245   0.0127  0.4380  0.0313  -3.1868   0.0000   0.2638
  -6.000  -0.6229   0.00814   0.00239   0.0128  0.4343  0.0320  -3.1038   0.0000   0.2643
  -5.900  -0.6117   0.00809   0.00233   0.0129  0.4320  0.0334  -3.0221   0.0000   0.2649
  -5.800  -0.6006   0.00802   0.00227   0.0130  0.4295  0.0350  -2.9413   0.0000   0.2655
  -5.700  -0.5895   0.00796   0.00221   0.0130  0.4265  0.0363  -2.8626   0.0000   0.2661
  -5.600  -0.5783   0.00792   0.00216   0.0131  0.4231  0.0373  -2.7891   0.0000   0.2667
  -5.400  -0.5560   0.00780   0.00204   0.0132  0.4177  0.0409  -2.6449   0.0000   0.2679
  -5.300  -0.5448   0.00775   0.00199   0.0133  0.4155  0.0426  -2.5735   0.0000   0.2686
  -5.200  -0.5335   0.00771   0.00195   0.0133  0.4128  0.0440  -2.5026   0.0000   0.2693
  -5.100  -0.5224   0.00765   0.00189   0.0134  0.4099  0.0465  -2.4330   0.0000   0.2700
  -5.000  -0.5112   0.00760   0.00184   0.0134  0.4064  0.0484  -2.3637   0.0000   0.2707
  -4.900  -0.4999   0.00756   0.00180   0.0135  0.4041  0.0496  -2.2947   0.0000   0.2715
  -4.800  -0.4887   0.00750   0.00175   0.0135  0.4021  0.0523  -2.2268   0.0000   0.2723
  -4.700  -0.4775   0.00745   0.00170   0.0136  0.3997  0.0546  -2.1626   0.0000   0.2731
  -4.600  -0.4662   0.00741   0.00166   0.0136  0.3971  0.0564  -2.1011   0.0000   0.2739
  -4.500  -0.4550   0.00736   0.00161   0.0137  0.3943  0.0597  -2.0407   0.0000   0.2748
  -4.300  -0.4324   0.00728   0.00153   0.0138  0.3896  0.0641  -1.9206   0.0000   0.2767
  -4.200  -0.4212   0.00722   0.00149   0.0138  0.3877  0.0676  -1.8618   0.0000   0.2777
  -4.100  -0.4099   0.00718   0.00145   0.0139  0.3854  0.0702  -1.8033   0.0000   0.2788
  -4.000  -0.3985   0.00715   0.00142   0.0139  0.3828  0.0721  -1.7457   0.0000   0.2799
  -3.900  -0.3873   0.00710   0.00138   0.0139  0.3799  0.0763  -1.6934   0.0000   0.2811
  -3.800  -0.3760   0.00707   0.00134   0.0140  0.3770  0.0791  -1.6411   0.0000   0.2823
  -3.700  -0.3646   0.00703   0.00131   0.0140  0.3757  0.0816  -1.5892   0.0000   0.2836
  -3.600  -0.3533   0.00698   0.00128   0.0141  0.3741  0.0852  -1.5381   0.0000   0.2850
  -3.500  -0.3419   0.00695   0.00124   0.0141  0.3721  0.0879  -1.4873   0.0000   0.2864
  -3.400  -0.3305   0.00692   0.00121   0.0141  0.3698  0.0910  -1.4377   0.0000   0.2880
  -3.300  -0.3193   0.00688   0.00118   0.0142  0.3673  0.0952  -1.3921   0.0000   0.2897
  -3.200  -0.3079   0.00685   0.00116   0.0142  0.3642  0.0979  -1.3467   0.0000   0.2914
  -3.100  -0.2965   0.00682   0.00113   0.0142  0.3625  0.1017  -1.3018   0.0000   0.2933
  -3.000  -0.2851   0.00677   0.00110   0.0142  0.3610  0.1058  -1.2573   0.0000   0.2954
  -2.900  -0.2737   0.00674   0.00107   0.0143  0.3593  0.1091  -1.2140   0.0000   0.2976
  -2.800  -0.2624   0.00670   0.00105   0.0143  0.3574  0.1146  -1.1740   0.0000   0.3000
  -2.700  -0.2510   0.00667   0.00102   0.0143  0.3553  0.1181  -1.1340   0.0000   0.3026
  -2.600  -0.2397   0.00664   0.00099   0.0144  0.3529  0.1235  -1.0947   0.0000   0.3055
  -2.400  -0.2169   0.00656   0.00095   0.0144  0.3487  0.1347  -1.0199   0.0000   0.3120
  -2.300  -0.2055   0.00653   0.00093   0.0144  0.3473  0.1396  -0.9844   0.0000   0.3159
  -2.200  -0.1942   0.00648   0.00090   0.0145  0.3456  0.1467  -0.9493   0.0000   0.3201
  -2.100  -0.1828   0.00645   0.00088   0.0145  0.3437  0.1529  -0.9151   0.0000   0.3249
  -2.000  -0.1715   0.00641   0.00086   0.0145  0.3416  0.1611  -0.8833   0.0000   0.3303
  -1.900  -0.1601   0.00637   0.00084   0.0145  0.3394  0.1685  -0.8517   0.0000   0.3365
  -1.700  -0.1374   0.00629   0.00080   0.0146  0.3355  0.1862  -0.7911   0.0000   0.3519
  -1.600  -0.1261   0.00624   0.00078   0.0146  0.3343  0.1958  -0.7625   0.0000   0.3616
  -1.500  -0.1147   0.00620   0.00076   0.0146  0.3327  0.2054  -0.7341   0.0000   0.3733
  -1.400  -0.1033   0.00616   0.00075   0.0146  0.3309  0.2161  -0.7071   0.0000   0.3875
  -1.300  -0.0920   0.00611   0.00073   0.0147  0.3289  0.2271  -0.6812   0.0000   0.4052
  -1.200  -0.0807   0.00607   0.00071   0.0147  0.3267  0.2388  -0.6555   0.0000   0.4278
  -1.100  -0.0694   0.00603   0.00070   0.0147  0.3242  0.2514  -0.6509   0.0000   0.4578
  -1.000  -0.0581   0.00598   0.00069   0.0147  0.3225  0.2646  -0.6629   0.0000   0.4995
  -0.900  -0.0467   0.00593   0.00067   0.0147  0.3215  0.2774  -0.6752   0.0000   0.5615
  -0.800  -0.0354   0.00588   0.00066   0.0147  0.3202  0.2905  -0.6875   0.0000   0.6634
  -0.700  -0.0240   0.00583   0.00065   0.0148  0.3186  0.3043  -0.6998   0.0000   0.8611
  -0.600  -0.0127   0.00579   0.00064   0.0148  0.3168  0.3176  -0.7122   0.0000   1.4128
  -0.500  -0.0013   0.00576   0.00063   0.0148  0.3148  0.3301  -0.7246   0.0000  11.4005
  -0.400   0.0100   0.00573   0.00063   0.0148  0.3124  0.3428  -0.7371   0.0000  -1.2334
  -0.200   0.0328   0.00566   0.00062   0.0148  0.3089  0.3672  -0.7621   0.0000  -0.2067
  -0.100   0.0442   0.00563   0.00062   0.0148  0.3077  0.3787  -0.7747   0.0000  -0.0900
   0.000   0.0556   0.00559   0.00061   0.0148  0.3063  0.3911  -0.7878   0.0000  -0.0214
   0.100   0.0670   0.00556   0.00061   0.0149  0.3048  0.4031  -0.8010   0.0000   0.0239
   0.200   0.0784   0.00554   0.00061   0.0149  0.3030  0.4140  -0.8142   0.0000   0.0561
   0.300   0.0899   0.00553   0.00061   0.0149  0.3010  0.4235  -0.8275   0.0000   0.0802
   0.400   0.1013   0.00551   0.00062   0.0149  0.2985  0.4343  -0.8408   0.0000   0.0988
   0.500   0.1127   0.00549   0.00062   0.0149  0.2967  0.4459  -0.8541   0.0000   0.1136
   0.600   0.1242   0.00546   0.00062   0.0149  0.2956  0.4570  -0.8676   0.0000   0.1257
   0.700   0.1356   0.00544   0.00062   0.0149  0.2943  0.4672  -0.8810   0.0000   0.1358
   0.800   0.1471   0.00542   0.00063   0.0149  0.2928  0.4773  -0.8946   0.0000   0.1444
   0.900   0.1585   0.00540   0.00063   0.0149  0.2911  0.4882  -0.9081   0.0000   0.1516
   1.000   0.1699   0.00539   0.00064   0.0149  0.2893  0.4995  -0.9220   0.0000   0.1579
   1.100   0.1814   0.00538   0.00065   0.0149  0.2873  0.5105  -0.9361   0.0000   0.1634
   1.200   0.1928   0.00536   0.00066   0.0149  0.2850  0.5224  -0.9503   0.0000   0.1682
   1.300   0.2042   0.00534   0.00066   0.0149  0.2838  0.5342  -0.9645   0.0000   0.1725
   1.400   0.2156   0.00531   0.00067   0.0149  0.2828  0.5473  -0.9788   0.0000   0.1763
   1.500   0.2270   0.00529   0.00068   0.0149  0.2815  0.5609  -0.9931   0.0000   0.1798
   1.700   0.2497   0.00523   0.00070   0.0149  0.2782  0.5921  -1.0217   0.0000   0.1856
   1.800   0.2610   0.00520   0.00071   0.0150  0.2763  0.6118  -1.0360   0.0000   0.1880
   1.900   0.2722   0.00515   0.00072   0.0150  0.2740  0.6343  -1.0503   0.0000   0.1902
   2.000   0.2833   0.00510   0.00073   0.0150  0.2720  0.6599  -1.0646   0.0000   0.1922
   2.100   0.2944   0.00503   0.00074   0.0151  0.2713  0.6864  -1.0796   0.0000   0.1940
   2.200   0.3056   0.00498   0.00076   0.0152  0.2703  0.7120  -1.0946   0.0000   0.1957
   2.300   0.3167   0.00493   0.00077   0.0152  0.2692  0.7358  -1.1096   0.0000   0.1972
   2.400   0.3278   0.00488   0.00079   0.0153  0.2678  0.7578  -1.1247   0.0000   0.1986
   2.500   0.3389   0.00485   0.00080   0.0154  0.2662  0.7780  -1.1397   0.0000   0.1998
   2.600   0.3499   0.00481   0.00083   0.0155  0.2641  0.7984  -1.1548   0.0000   0.2010
   2.700   0.3608   0.00480   0.00085   0.0156  0.2601  0.8164  -1.1698   0.0000   0.2020
   2.800   0.3720   0.00479   0.00087   0.0156  0.2579  0.8310  -1.1851   0.0000   0.2030
   2.900   0.3827   0.00476   0.00089   0.0158  0.2542  0.8494  -1.2001   0.0000   0.2037
   3.000   0.3938   0.00479   0.00093   0.0159  0.2491  0.8615  -1.2153   0.0000   0.2046
   3.100   0.4044   0.00476   0.00095   0.0161  0.2474  0.8786  -1.2302   0.0000   0.2051
   3.200   0.4155   0.00476   0.00097   0.0162  0.2459  0.8892  -1.2461   0.0000   0.2059
   3.300   0.4260   0.00475   0.00100   0.0164  0.2440  0.9036  -1.2617   0.0000   0.2062
   3.400   0.4367   0.00475   0.00103   0.0166  0.2417  0.9161  -1.2775   0.0000   0.2067
   3.500   0.4479   0.00478   0.00106   0.0167  0.2390  0.9233  -1.2937   0.0000   0.2074
   3.600   0.4588   0.00479   0.00109   0.0168  0.2366  0.9350  -1.3097   0.0000   0.2079
   3.700   0.4698   0.00479   0.00112   0.0170  0.2352  0.9461  -1.3259   0.0000   0.2084
   3.800   0.4810   0.00482   0.00115   0.0171  0.2333  0.9540  -1.3424   0.0000   0.2091
   3.900   0.4923   0.00486   0.00118   0.0171  0.2298  0.9587  -1.3588   0.0000   0.2097
   4.000   0.5041   0.00492   0.00122   0.0170  0.2250  0.9630  -1.3757   0.0000   0.2107
   4.100   0.5174   0.00496   0.00126   0.0166  0.2206  0.9697  -1.3942   0.0000   0.2123
   4.200   0.5308   0.00504   0.00130   0.0161  0.2141  0.9747  -1.4125   0.0000   0.2139
   4.300   0.5441   0.00510   0.00134   0.0157  0.2090  0.9787  -1.4309   0.0000   0.2154
   4.400   0.5570   0.00518   0.00139   0.0153  0.2030  0.9820  -1.4498   0.0000   0.2167
   4.500   0.5698   0.00526   0.00144   0.0150  0.1963  0.9846  -1.4686   0.0000   0.2178
   4.600   0.5823   0.00537   0.00150   0.0147  0.1868  0.9867  -1.5410   0.0000   0.2189
   4.700   0.5946   0.00552   0.00159   0.0144  0.1748  0.9885  -1.6326   0.0000   0.2198
   4.800   0.6065   0.00573   0.00172   0.0142  0.1561  0.9900  -1.7224   0.0000   0.2206
   4.900   0.6139   0.00718   0.00259   0.0141  0.0242  0.9920  -1.7812   0.0000   0.2210
   5.000   0.6257   0.00741   0.00275   0.0139  0.0050  0.9931  -1.8641   0.0000   0.2217
   5.100   0.6379   0.00752   0.00286   0.0137  0.0029  0.9940  -1.9068   0.0000   0.2223
   5.200   0.6502   0.00759   0.00292   0.0134  0.0028  0.9948  -1.9990   0.0000   0.2230
   5.300   0.6626   0.00766   0.00299   0.0132  0.0028  0.9955  -2.0909   0.0000   0.2237
   5.400   0.6748   0.00773   0.00306   0.0130  0.0027  0.9961  -2.1833   0.0000   0.2243
   5.500   0.6871   0.00781   0.00314   0.0128  0.0027  0.9966  -2.2762   0.0000   0.2249
   5.600   0.6994   0.00789   0.00322   0.0126  0.0026  0.9970  -2.3700   0.0000   0.2254
   5.700   0.7116   0.00797   0.00330   0.0124  0.0026  0.9974  -2.4647   0.0000   0.2259
   5.800   0.7239   0.00805   0.00339   0.0121  0.0026  0.9978  -2.5605   0.0000   0.2265
   5.900   0.7361   0.00814   0.00348   0.0119  0.0026  0.9981  -2.6571   0.0000   0.2269
   6.000   0.7483   0.00823   0.00357   0.0117  0.0025  0.9984  -2.7546   0.0000   0.2274
   6.100   0.7605   0.00833   0.00367   0.0115  0.0025  0.9986  -2.8530   0.0000   0.2278
   6.200   0.7727   0.00842   0.00377   0.0113  0.0025  0.9988  -2.9522   0.0000   0.2283
   6.300   0.7850   0.00853   0.00388   0.0111  0.0025  0.9990  -3.0525   0.0000   0.2287
   6.400   0.7973   0.00863   0.00399   0.0108  0.0025  0.9992  -3.1539   0.0000   0.2291
   6.500   0.8097   0.00874   0.00411   0.0106  0.0025  0.9994  -3.2562   0.0000   0.2296
   6.600   0.8220   0.00886   0.00423   0.0103  0.0025  0.9995  -3.3594   0.0000   0.2300
   6.700   0.8344   0.00898   0.00436   0.0100  0.0025  0.9997  -3.4633   0.0000   0.2304
   6.800   0.8468   0.00911   0.00450   0.0097  0.0025  0.9998  -3.5678   0.0000   0.2308
   6.900   0.8592   0.00924   0.00464   0.0095  0.0025  0.9999  -3.6726   0.0000   0.2312
   7.000   0.8710   0.00938   0.00479   0.0093  0.0025  1.0000  -3.7754   0.0000   0.2315
   7.100   0.8808   0.00952   0.00494   0.0095  0.0025  1.0000  -3.8698   0.0000   0.2312
   7.200   0.8906   0.00966   0.00510   0.0098  0.0025  1.0000  -3.9644   0.0000   0.2309
   7.300   0.9004   0.00981   0.00527   0.0101  0.0025  1.0000  -4.0591   0.0000   0.2307
   7.400   0.9101   0.00997   0.00544   0.0103  0.0025  1.0000  -4.1538   0.0000   0.2304
   7.500   0.9198   0.01014   0.00562   0.0106  0.0025  1.0000  -4.2484   0.0000   0.2301
   7.600   0.9295   0.01031   0.00581   0.0108  0.0025  1.0000  -4.3429   0.0000   0.2299
   7.700   0.9390   0.01049   0.00601   0.0111  0.0025  1.0000  -4.4372   0.0000   0.2296
   7.800   0.9485   0.01069   0.00623   0.0114  0.0025  1.0000  -4.5310   0.0000   0.2293
   7.900   0.9579   0.01089   0.00645   0.0116  0.0025  1.0000  -4.6244   0.0000   0.2290
   8.000   0.9672   0.01110   0.00669   0.0119  0.0025  1.0000  -4.7171   0.0000   0.2287
   8.100   0.9764   0.01133   0.00693   0.0122  0.0026  1.0000  -4.8092   0.0000   0.2284
   8.200   0.9854   0.01156   0.00719   0.0125  0.0026  1.0000  -4.9003   0.0000   0.2281
   8.300   0.9943   0.01181   0.00747   0.0129  0.0026  1.0000  -4.9904   0.0000   0.2278
   8.400   1.0030   0.01208   0.00776   0.0132  0.0026  1.0000  -5.0794   0.0000   0.2274
   8.500   1.0116   0.01236   0.00806   0.0136  0.0026  1.0000  -5.1670   0.0000   0.2271
   8.600   1.0199   0.01265   0.00839   0.0139  0.0026  1.0000  -5.2529   0.0000   0.2267
   8.700   1.0281   0.01297   0.00873   0.0143  0.0026  1.0000  -5.3369   0.0000   0.2263
   8.800   1.0360   0.01330   0.00909   0.0148  0.0026  1.0000  -5.4185   0.0000   0.2259
   8.900   1.0436   0.01365   0.00947   0.0152  0.0026  1.0000  -5.4973   0.0000   0.2254
   9.000   1.0508   0.01403   0.00989   0.0157  0.0027  1.0000  -5.5726   0.0000   0.2250
   9.100   1.0577   0.01444   0.01033   0.0162  0.0027  1.0000  -5.6467   0.0000   0.2245
   9.200   1.0641   0.01489   0.01081   0.0167  0.0027  1.0000  -5.7149   0.0000   0.2239
   9.300   1.0698   0.01539   0.01135   0.0173  0.0027  1.0000  -5.7740   0.0000   0.2233
   9.400   1.0751   0.01589   0.01189   0.0180  0.0027  1.0000  -5.8330   0.0000   0.2227
   9.500   1.0809   0.01633   0.01236   0.0186  0.0027  1.0000  -5.9073   0.0000   0.2221
   9.600   1.0868   0.01673   0.01278   0.0192  0.0027  1.0000  -5.9885   0.0000   0.2215
   9.700   1.0927   0.01712   0.01319   0.0198  0.0027  1.0000  -6.0725   0.0000   0.2209
   9.800   1.0983   0.01751   0.01361   0.0204  0.0027  1.0000  -6.1563   0.0000   0.2203
   9.900   1.1035   0.01791   0.01404   0.0210  0.0027  1.0000  -6.2373   0.0000   0.2197
  10.000   1.1082   0.01836   0.01450   0.0217  0.0027  1.0000  -6.3120   0.0000   0.2190
  10.100   1.1117   0.01888   0.01505   0.0225  0.0027  1.0000  -6.3716   0.0000   0.2183
  13.700   1.1227   0.05207   0.04914   0.0227  0.0034  1.0000  -8.1228   0.0000   0.2122
  13.800   1.1220   0.05320   0.05029   0.0224  0.0034  1.0000  -8.1709   0.0000   0.2123
  13.900   1.1212   0.05436   0.05148   0.0221  0.0034  1.0000  -8.2169   0.0000   0.2124
  14.000   1.1206   0.05550   0.05263   0.0218  0.0034  1.0000  -8.2654   0.0000   0.2125
  14.100   1.1197   0.05666   0.05382   0.0214  0.0034  1.0000  -8.3108   0.0000   0.2126
  14.200   1.1188   0.05788   0.05507   0.0211  0.0034  1.0000  -8.3550   0.0000   0.2127
  14.300   1.1182   0.05908   0.05629   0.0207  0.0034  1.0000  -8.4028   0.0000   0.2129
  14.400   1.1176   0.06031   0.05755   0.0203  0.0034  1.0000  -8.4497   0.0000   0.2130
  14.500   1.1167   0.06163   0.05888   0.0198  0.0034  1.0000  -8.4923   0.0000   0.2132
  14.600   1.1160   0.06291   0.06019   0.0194  0.0033  1.0000  -8.5377   0.0000   0.2135
  14.700   1.1154   0.06419   0.06150   0.0189  0.0033  1.0000  -8.5834   0.0000   0.2137
  14.800   1.1142   0.06558   0.06291   0.0184  0.0033  1.0000  -8.6226   0.0000   0.2139
  14.900   1.1132   0.06694   0.06430   0.0179  0.0033  1.0000  -8.6635   0.0000   0.2142
  15.000   1.1123   0.06827   0.06565   0.0174  0.0033  1.0000  -8.7059   0.0000   0.2144
  15.100   1.1109   0.06972   0.06713   0.0168  0.0033  1.0000  -8.7413   0.0000   0.2148
  15.200   1.1095   0.07117   0.06861   0.0162  0.0033  1.0000  -8.7769   0.0000   0.2151
  15.300   1.1084   0.07259   0.07005   0.0157  0.0033  1.0000  -8.8151   0.0000   0.2154
  15.400   1.1069   0.07409   0.07158   0.0150  0.0033  1.0000  -8.8483   0.0000   0.2157
  15.500   1.1051   0.07565   0.07317   0.0144  0.0033  1.0000  -8.8780   0.0000   0.2161
  15.600   1.1037   0.07716   0.07470   0.0137  0.0033  1.0000  -8.9112   0.0000   0.2165
  15.700   1.1020   0.07871   0.07627   0.0131  0.0033  1.0000  -8.9411   0.0000   0.2169
  15.800   1.0998   0.08035   0.07795   0.0124  0.0032  1.0000  -8.9642   0.0000   0.2173
  15.900   1.0979   0.08195   0.07957   0.0117  0.0032  1.0000  -8.9909   0.0000   0.2177
  16.000   1.0961   0.08356   0.08121   0.0110  0.0032  1.0000  -9.0172   0.0000   0.2182
  16.100   1.0935   0.08531   0.08299   0.0101  0.0032  1.0000  -9.0342   0.0000   0.2187
  16.200   1.0913   0.08701   0.08471   0.0094  0.0032  1.0000  -9.0549   0.0000   0.2192
  16.300   1.0892   0.08869   0.08642   0.0086  0.0032  1.0000  -9.0763   0.0000   0.2197
  16.400   1.0864   0.09053   0.08829   0.0077  0.0032  1.0000  -9.0876   0.0000   0.2203
  16.500   1.0838   0.09231   0.09010   0.0069  0.0032  1.0000  -9.1011   0.0000   0.2209
  16.600   1.0815   0.09406   0.09188   0.0061  0.0032  1.0000  -9.1165   0.0000   0.2215
  16.700   1.0783   0.09598   0.09384   0.0051  0.0032  1.0000  -9.1211   0.0000   0.2221
  16.800   1.0755   0.09786   0.09574   0.0042  0.0032  1.0000  -9.1284   0.0000   0.2228
  16.900   1.0729   0.09970   0.09761   0.0033  0.0032  1.0000  -9.1373   0.0000   0.2235
  17.000   1.0695   0.10171   0.09966   0.0022  0.0032  1.0000  -9.1351   0.0000   0.2243
  17.100   1.0665   0.10366   0.10164   0.0012  0.0032  1.0000  -9.1359   0.0000   0.2250
  17.200   1.0635   0.10559   0.10359   0.0002  0.0032  1.0000  -9.1365   0.0000   0.2258
  17.300   1.0598   0.10768   0.10571  -0.0009  0.0031  1.0000  -9.1267   0.0000   0.2267
  17.400   1.0565   0.10969   0.10776  -0.0020  0.0031  1.0000  -9.1207   0.0000   0.2275
  17.500   1.0532   0.11174   0.10984  -0.0031  0.0031  1.0000  -9.1118   0.0000   0.2284
  17.600   1.0493   0.11390   0.11203  -0.0043  0.0031  1.0000  -9.0953   0.0000   0.2294
  17.700   1.0460   0.11598   0.11414  -0.0054  0.0031  1.0000  -9.0828   0.0000   0.2303
  17.800   1.0421   0.11819   0.11638  -0.0067  0.0031  1.0000  -9.0615   0.0000   0.2314
  17.900   1.0382   0.12037   0.11859  -0.0080  0.0031  1.0000  -9.0394   0.0000   0.2325
  18.000   1.0345   0.12254   0.12080  -0.0092  0.0031  1.0000  -9.0169   0.0000   0.2336
  18.100   1.0303   0.12485   0.12314  -0.0106  0.0031  1.0000  -8.9857   0.0000   0.2348
  18.200   1.0264   0.12708   0.12540  -0.0119  0.0031  1.0000  -8.9573   0.0000   0.2360
  18.300   1.0222   0.12943   0.12778  -0.0134  0.0031  1.0000  -8.9216   0.0000   0.2373
  18.400   1.0181   0.13175   0.13014  -0.0148  0.0031  1.0000  -8.8857   0.0000   0.2386
  18.500   1.0140   0.13410   0.13251  -0.0162  0.0031  1.0000  -8.8466   0.0000   0.2399
  18.600   1.0097   0.13649   0.13494  -0.0178  0.0031  1.0000  -8.8039   0.0000   0.2413
  18.700   1.0056   0.13885   0.13734  -0.0192  0.0031  1.0000  -8.7605   0.0000   0.2427
  18.800   1.0012   0.14131   0.13983  -0.0208  0.0031  1.0000  -8.7125   0.0000   0.2443
  18.900   0.9971   0.14371   0.14226  -0.0223  0.0031  1.0000  -8.6643   0.0000   0.2458
  19.000   0.9929   0.14621   0.14479  -0.0239  0.0031  1.0000  -8.6119   0.0000   0.2474
  19.100   0.9888   0.14865   0.14726  -0.0255  0.0031  1.0000  -8.5589   0.0000   0.2490
  19.200   0.9846   0.15118   0.14982  -0.0272  0.0031  1.0000  -8.5017   0.0000   0.2507
  19.300   0.9805   0.15365   0.15232  -0.0288  0.0031  1.0000  -8.4435   0.0000   0.2523
  19.400   0.9762   0.15623   0.15493  -0.0305  0.0031  1.0000  -8.3800   0.0000   0.2541
  19.500   0.9722   0.15875   0.15748  -0.0321  0.0031  1.0000  -8.3151   0.0000   0.2558
  19.600   0.9679   0.16140   0.16017  -0.0339  0.0031  1.0000  -8.2421   0.0000   0.2577
  19.700   0.9637   0.16403   0.16282  -0.0356  0.0031  1.0000  -8.1665   0.0000   0.2596
  19.800   0.9592   0.16678   0.16560  -0.0374  0.0031  1.0000  -8.0799   0.0000   0.2616
  19.900   0.9545   0.16961   0.16847  -0.0393  0.0031  1.0000  -7.9832   0.0000   0.2637
  20.000   0.9498   0.17250   0.17138  -0.0412  0.0031  1.0000  -7.8777   0.0000   0.2659
  20.100   0.9442   0.17567   0.17459  -0.0433  0.0031  1.0000  -7.7450   0.0000   0.2684
  20.200   0.9376   0.17916   0.17812  -0.0455  0.0031  1.0000  -7.5783   0.0000   0.2712
  20.300   0.9295   0.18326   0.18225  -0.0481  0.0031  1.0000  -7.3491   0.0000   0.2745
  24.000   0.8412   0.32335   0.32269  -0.1287  0.0027  1.0000  -1.7057   0.0000   0.3797
  24.100   0.8432   0.32535   0.32470  -0.1296  0.0027  1.0000  -1.6998   0.0000   0.3803
  24.200   0.8452   0.32737   0.32672  -0.1305  0.0026  1.0000  -1.6917   0.0000   0.3808
  24.300   0.8472   0.32942   0.32877  -0.1314  0.0025  1.0000  -1.6801   0.0000   0.3814
  24.400   0.8492   0.33143   0.33078  -0.1322  0.0024  1.0000  -1.6698   0.0000   0.3819
  24.500   0.8511   0.33341   0.33276  -0.1331  0.0023  1.0000  -1.6644   0.0000   0.3824
  24.600   0.8530   0.33534   0.33470  -0.1340  0.0022  1.0000  -1.6625   0.0000   0.3829
  24.700   0.8548   0.33727   0.33663  -0.1349  0.0021  1.0000  -1.6629   0.0000   0.3834
  24.800   0.8566   0.33917   0.33853  -0.1358  0.0020  1.0000  -1.6653   0.0000   0.3839
  24.900   0.8584   0.34104   0.34040  -0.1366  0.0020  1.0000  -1.6696   0.0000   0.3844
  25.000   0.8602   0.34289   0.34226  -0.1375  0.0019  1.0000  -1.6755   0.0000   0.3849


