xflr5 v6.47

 Calculated polar for: 763ER

 1 1 Reynolds number fixed          Mach number fixed         

 xtrf =   1.000 (top)        1.000 (bottom)
 Mach =   0.000     Re =     9.000 e 6     Ncrit =   9.000

  alpha     CL        CD       CDp       Cm    Top Xtr Bot Xtr   Cpmin    Chinge    XCp    
 ------- -------- --------- --------- -------- ------- ------- -------- --------- ---------
 -25.000  -0.9064   0.22851   0.22779   0.0792  1.0000  0.0022  -8.6183   0.0000   0.3068
 -24.800  -0.9149   0.22311   0.22236   0.0761  1.0000  0.0025  -9.1051   0.0000   0.3023
 -24.700  -0.9147   0.22168   0.22093   0.0752  1.0000  0.0026  -9.1424   0.0000   0.3014
 -24.600  -0.9139   0.22042   0.21967   0.0743  1.0000  0.0026  -9.1507   0.0000   0.3006
 -24.500  -0.9129   0.21920   0.21845   0.0734  1.0000  0.0027  -9.1533   0.0000   0.2999
 -24.400  -0.9121   0.21792   0.21716   0.0725  1.0000  0.0027  -9.1638   0.0000   0.2991
 -24.300  -0.9215   0.21406   0.21328   0.0704  1.0000  0.0028  -9.5707   0.0000   0.2956
 -24.200  -0.9210   0.21273   0.21194   0.0694  1.0000  0.0029  -9.5841   0.0000   0.2947
 -24.100  -0.9204   0.21143   0.21064   0.0685  1.0000  0.0029  -9.5916   0.0000   0.2939
 -24.000  -0.9196   0.21015   0.20936   0.0676  1.0000  0.0030  -9.5932   0.0000   0.2931
 -23.900  -0.9189   0.20886   0.20807   0.0667  1.0000  0.0030  -9.5965   0.0000   0.2923
 -23.800  -0.9275   0.20535   0.20452   0.0646  1.0000  0.0031  -9.9319   0.0000   0.2891
 -23.700  -0.9280   0.20377   0.20294   0.0635  1.0000  0.0031  -9.9712   0.0000   0.2880
 -23.600  -0.9277   0.20238   0.20154   0.0625  1.0000  0.0031  -9.9829   0.0000   0.2871
 -23.500  -0.9273   0.20102   0.20018   0.0616  1.0000  0.0031  -9.9890   0.0000   0.2862
 -23.300  -0.9372   0.19587   0.19499   0.0582  1.0000  0.0032  -10.3493   0.0000   0.2819
 -23.200  -0.9379   0.19428   0.19339   0.0571  1.0000  0.0032  -10.3829   0.0000   0.2808
 -23.100  -0.9381   0.19279   0.19189   0.0561  1.0000  0.0032  -10.4018   0.0000   0.2798
 -23.000  -0.9385   0.19125   0.19034   0.0550  1.0000  0.0032  -10.4249   0.0000   0.2787
 -22.900  -0.9507   0.18717   0.18622   0.0524  1.0000  0.0032  -10.8024   0.0000   0.2750
 -22.800  -0.9519   0.18547   0.18452   0.0512  1.0000  0.0032  -10.8420   0.0000   0.2738
 -22.700  -0.9636   0.18155   0.18055   0.0486  1.0000  0.0032  -11.1859   0.0000   0.2703
 -22.600  -0.9673   0.17934   0.17833   0.0471  1.0000  0.0032  -11.2889   0.0000   0.2686
 -22.500  -0.9703   0.17730   0.17628   0.0456  1.0000  0.0032  -11.3664   0.0000   0.2670
 -22.200  -1.0086   0.16531   0.16417   0.0374  1.0000  0.0032  -12.3606   0.0000   0.2568
 -22.100  -1.0286   0.15998   0.15879   0.0336  1.0000  0.0032  -12.8486   0.0000   0.2522
 -22.000  -1.0507   0.15434   0.15309   0.0296  1.0000  0.0032  -13.3674   0.0000   0.2476
 -21.900  -1.0763   0.14810   0.14679   0.0251  1.0000  0.0032  -13.9498   0.0000   0.2426
 -21.800  -1.1060   0.14118   0.13979   0.0200  1.0000  0.0032  -14.6021   0.0000   0.2373
 -21.700  -1.1568   0.13050   0.12898   0.0122  1.0000  0.0031  -15.6965   0.0000   0.2296
 -21.600  -1.2241   0.11709   0.11541   0.0024  1.0000  0.0029  -17.0829   0.0000   0.2209
 -21.500  -1.2714   0.10736   0.10555  -0.0045  1.0000  0.0027  -17.9971   0.0000   0.2154
 -21.400  -1.3115   0.09896   0.09703  -0.0104  1.0000  0.0026  -18.7355   0.0000   0.2111
 -21.300  -1.3479   0.09131   0.08927  -0.0157  1.0000  0.0024  -19.3754   0.0000   0.2076
 -21.200  -1.3843   0.08376   0.08161  -0.0209  1.0000  0.0023  -19.9981   0.0000   0.2043
 -21.100  -1.4162   0.07721   0.07497  -0.0253  1.0000  0.0022  -20.5145   0.0000   0.2018
 -21.000  -1.4441   0.07149   0.06916  -0.0291  1.0000  0.0021  -20.9434   0.0000   0.1998
 -20.900  -1.4689   0.06642   0.06401  -0.0323  1.0000  0.0020  -21.3055   0.0000   0.1981
 -20.800  -1.4908   0.06197   0.05949  -0.0352  1.0000  0.0020  -21.6049   0.0000   0.1968
 -20.700  -1.5096   0.05809   0.05554  -0.0375  1.0000  0.0020  -21.8420   0.0000   0.1958
 -20.600  -1.5257   0.05470   0.05209  -0.0395  1.0000  0.0020  -22.0264   0.0000   0.1950
 -20.500  -1.5399   0.05168   0.04902  -0.0412  1.0000  0.0020  -22.1719   0.0000   0.1944
 -20.400  -1.5523   0.04899   0.04628  -0.0426  1.0000  0.0020  -22.2830   0.0000   0.1940
 -20.300  -1.5630   0.04659   0.04383  -0.0438  1.0000  0.0020  -22.3615   0.0000   0.1937
 -20.200  -1.5727   0.04438   0.04157  -0.0448  1.0000  0.0020  -22.4207   0.0000   0.1935
 -20.100  -1.5817   0.04233   0.03949  -0.0456  1.0000  0.0020  -22.4645   0.0000   0.1934
 -20.000  -1.5899   0.04047   0.03758  -0.0463  1.0000  0.0020  -22.4904   0.0000   0.1934
 -19.900  -1.5973   0.03876   0.03584  -0.0468  1.0000  0.0020  -22.5028   0.0000   0.1934
 -19.800  -1.6043   0.03719   0.03422  -0.0471  1.0000  0.0020  -22.5047   0.0000   0.1936
 -19.700  -1.6109   0.03573   0.03274  -0.0473  1.0000  0.0020  -22.4978   0.0000   0.1939
 -19.600  -1.6169   0.03442   0.03139  -0.0473  1.0000  0.0020  -22.4783   0.0000   0.1942
 -19.500  -1.6226   0.03319   0.03013  -0.0471  1.0000  0.0020  -22.4531   0.0000   0.1946
 -19.400  -1.6281   0.03206   0.02896  -0.0469  1.0000  0.0020  -22.4215   0.0000   0.1951
 -19.300  -1.6333   0.03100   0.02787  -0.0464  1.0000  0.0020  -22.3837   0.0000   0.1957
 -19.200  -1.6382   0.03003   0.02687  -0.0459  1.0000  0.0020  -22.3399   0.0000   0.1963
 -19.100  -1.6428   0.02913   0.02594  -0.0453  1.0000  0.0021  -22.2899   0.0000   0.1970
 -19.000  -1.6469   0.02831   0.02509  -0.0445  1.0000  0.0021  -22.2319   0.0000   0.1977
 -18.900  -1.6510   0.02754   0.02430  -0.0437  1.0000  0.0021  -22.1714   0.0000   0.1985
 -18.800  -1.6553   0.02682   0.02355  -0.0427  1.0000  0.0022  -22.1133   0.0000   0.1994
 -18.700  -1.6586   0.02617   0.02287  -0.0417  1.0000  0.0022  -22.0397   0.0000   0.2002
 -18.600  -1.6621   0.02554   0.02222  -0.0406  1.0000  0.0022  -21.9682   0.0000   0.2012
 -18.500  -1.6655   0.02496   0.02161  -0.0394  1.0000  0.0023  -21.8938   0.0000   0.2021
 -18.400  -1.6683   0.02442   0.02105  -0.0381  1.0000  0.0023  -21.8117   0.0000   0.2031
 -18.300  -1.6713   0.02392   0.02052  -0.0368  1.0000  0.0024  -21.7303   0.0000   0.2041
 -18.200  -1.6742   0.02345   0.02003  -0.0353  1.0000  0.0024  -21.6460   0.0000   0.2052
 -18.100  -1.6762   0.02302   0.01958  -0.0339  1.0000  0.0025  -21.5509   0.0000   0.2063
 -18.000  -1.6797   0.02261   0.01914  -0.0322  1.0000  0.0025  -21.4733   0.0000   0.2075
 -17.900  -1.6811   0.02222   0.01873  -0.0307  1.0000  0.0025  -21.3684   0.0000   0.2086
 -17.800  -1.6832   0.02185   0.01834  -0.0291  1.0000  0.0026  -21.2719   0.0000   0.2098
 -17.700  -1.6865   0.02151   0.01798  -0.0271  1.0000  0.0026  -21.1904   0.0000   0.2111
 -17.600  -1.6870   0.02120   0.01764  -0.0256  1.0000  0.0027  -21.0720   0.0000   0.2122
 -17.500  -1.6875   0.02091   0.01733  -0.0239  1.0000  0.0027  -20.9536   0.0000   0.2134
 -17.400  -1.6889   0.02064   0.01705  -0.0220  1.0000  0.0028  -20.8467   0.0000   0.2147
 -17.300  -1.6933   0.02043   0.01682  -0.0195  1.0000  0.0028  -20.7741   0.0000   0.2164
 -17.200  -1.6976   0.02024   0.01661  -0.0170  1.0000  0.0028  -20.7003   0.0000   0.2181
 -17.100  -1.6945   0.01997   0.01632  -0.0158  1.0000  0.0029  -20.5379   0.0000   0.2189
 -17.000  -1.6906   0.01971   0.01605  -0.0148  1.0000  0.0029  -20.3664   0.0000   0.2197
 -16.900  -1.6861   0.01945   0.01578  -0.0139  1.0000  0.0030  -20.1887   0.0000   0.2204
 -16.800  -1.6812   0.01921   0.01552  -0.0130  1.0000  0.0030  -20.0059   0.0000   0.2211
 -16.700  -1.6759   0.01897   0.01527  -0.0122  1.0000  0.0030  -19.8188   0.0000   0.2217
 -16.600  -1.6702   0.01874   0.01502  -0.0114  1.0000  0.0031  -19.6281   0.0000   0.2223
 -16.500  -1.6642   0.01851   0.01479  -0.0107  1.0000  0.0031  -19.4345   0.0000   0.2229
 -16.400  -1.6579   0.01829   0.01455  -0.0100  1.0000  0.0031  -19.2383   0.0000   0.2235
 -16.300  -1.6514   0.01808   0.01433  -0.0093  1.0000  0.0032  -19.0400   0.0000   0.2241
 -16.200  -1.6447   0.01787   0.01410  -0.0087  1.0000  0.0032  -18.8400   0.0000   0.2246
 -16.100  -1.6378   0.01766   0.01389  -0.0081  1.0000  0.0032  -18.6385   0.0000   0.2252
 -16.000  -1.6306   0.01746   0.01367  -0.0075  1.0000  0.0032  -18.4358   0.0000   0.2257
 -15.900  -1.6233   0.01726   0.01346  -0.0069  1.0000  0.0032  -18.2318   0.0000   0.2262
 -15.800  -1.6159   0.01706   0.01326  -0.0064  1.0000  0.0032  -18.0271   0.0000   0.2267
 -15.700  -1.6083   0.01687   0.01306  -0.0059  1.0000  0.0033  -17.8216   0.0000   0.2272
 -15.600  -1.6005   0.01668   0.01286  -0.0054  1.0000  0.0033  -17.6156   0.0000   0.2277
 -15.500  -1.5927   0.01650   0.01266  -0.0049  1.0000  0.0033  -17.4092   0.0000   0.2281
 -15.400  -1.5847   0.01632   0.01247  -0.0044  1.0000  0.0033  -17.2025   0.0000   0.2286
 -15.300  -1.5766   0.01614   0.01228  -0.0040  1.0000  0.0033  -16.9955   0.0000   0.2290
 -15.200  -1.5685   0.01595   0.01208  -0.0035  1.0000  0.0034  -16.7910   0.0000   0.2295
 -15.100  -1.5604   0.01575   0.01188  -0.0031  1.0000  0.0034  -16.5870   0.0000   0.2300
 -15.000  -1.5522   0.01556   0.01168  -0.0026  1.0000  0.0035  -16.3832   0.0000   0.2304
 -14.900  -1.5439   0.01537   0.01148  -0.0022  1.0000  0.0036  -16.1799   0.0000   0.2309
 -14.800  -1.5356   0.01518   0.01128  -0.0018  1.0000  0.0037  -15.9770   0.0000   0.2313
 -14.700  -1.5272   0.01498   0.01108  -0.0013  1.0000  0.0039  -15.7748   0.0000   0.2317
 -14.600  -1.5188   0.01479   0.01088  -0.0009  1.0000  0.0040  -15.5730   0.0000   0.2322
 -14.500  -1.5103   0.01460   0.01068  -0.0005  1.0000  0.0041  -15.3716   0.0000   0.2326
 -14.400  -1.5016   0.01441   0.01049  -0.0001  1.0000  0.0041  -15.1703   0.0000   0.2330
 -14.300  -1.4929   0.01422   0.01030   0.0002  1.0000  0.0042  -14.9689   0.0000   0.2335
 -14.200  -1.4841   0.01404   0.01011   0.0006  1.0000  0.0043  -14.7673   0.0000   0.2339
 -14.100  -1.4751   0.01387   0.00994   0.0009  1.0000  0.0044  -14.5655   0.0000   0.2343
 -14.000  -1.4661   0.01371   0.00977   0.0013  1.0000  0.0045  -14.3637   0.0000   0.2347
 -13.900  -1.4569   0.01355   0.00960   0.0016  1.0000  0.0046  -14.1620   0.0000   0.2351
 -13.800  -1.4476   0.01340   0.00944   0.0019  1.0000  0.0046  -13.9605   0.0000   0.2355
 -13.700  -1.4383   0.01325   0.00929   0.0022  1.0000  0.0047  -13.7595   0.0000   0.2358
 -13.600  -1.4289   0.01310   0.00914   0.0025  1.0000  0.0047  -13.5589   0.0000   0.2362
 -13.500  -1.4194   0.01296   0.00899   0.0028  1.0000  0.0048  -13.3589   0.0000   0.2366
 -13.400  -1.4098   0.01282   0.00885   0.0030  1.0000  0.0048  -13.1596   0.0000   0.2370
 -13.300  -1.4002   0.01269   0.00871   0.0033  1.0000  0.0048  -12.9609   0.0000   0.2373
 -13.200  -1.3905   0.01256   0.00858   0.0035  1.0000  0.0049  -12.7630   0.0000   0.2377
 -13.100  -1.3808   0.01243   0.00844   0.0038  1.0000  0.0049  -12.5659   0.0000   0.2380
 -13.000  -1.3710   0.01230   0.00831   0.0040  1.0000  0.0049  -12.3697   0.0000   0.2384
 -12.900  -1.3635   0.01262   0.00815   0.0047  0.7552  0.0049  -12.1974   0.0000   0.2391
 -12.800  -1.3539   0.01260   0.00801   0.0049  0.6969  0.0049  -12.0059   0.0000   0.2394
 -12.700  -1.3441   0.01251   0.00787   0.0052  0.6750  0.0049  -11.8132   0.0000   0.2398
 -12.600  -1.3342   0.01240   0.00773   0.0054  0.6600  0.0050  -11.6228   0.0000   0.2401
 -12.500  -1.3244   0.01229   0.00759   0.0056  0.6486  0.0052  -11.4340   0.0000   0.2405
 -12.400  -1.3146   0.01217   0.00745   0.0059  0.6398  0.0053  -11.2462   0.0000   0.2408
 -12.300  -1.3047   0.01204   0.00730   0.0061  0.6322  0.0055  -11.0595   0.0000   0.2412
 -12.200  -1.2948   0.01192   0.00716   0.0063  0.6249  0.0057  -10.8740   0.0000   0.2416
 -12.100  -1.2849   0.01179   0.00702   0.0065  0.6184  0.0058  -10.6897   0.0000   0.2419
 -12.000  -1.2750   0.01167   0.00688   0.0068  0.6125  0.0060  -10.5063   0.0000   0.2423
 -11.900  -1.2650   0.01155   0.00675   0.0070  0.6059  0.0061  -10.3239   0.0000   0.2426
 -11.800  -1.2549   0.01143   0.00662   0.0072  0.6017  0.0062  -10.1419   0.0000   0.2430
 -11.700  -1.2447   0.01131   0.00649   0.0074  0.5965  0.0064  -9.9608   0.0000   0.2433
 -11.600  -1.2345   0.01121   0.00637   0.0075  0.5912  0.0065  -9.7806   0.0000   0.2437
 -11.500  -1.2243   0.01110   0.00626   0.0077  0.5874  0.0066  -9.6011   0.0000   0.2440
 -11.400  -1.2140   0.01100   0.00615   0.0079  0.5821  0.0067  -9.4226   0.0000   0.2444
 -11.300  -1.2036   0.01091   0.00604   0.0081  0.5769  0.0068  -9.2452   0.0000   0.2447
 -11.200  -1.1932   0.01082   0.00594   0.0082  0.5729  0.0068  -9.0846   0.0000   0.2450
 -11.100  -1.1828   0.01073   0.00584   0.0084  0.5678  0.0069  -8.9410   0.0000   0.2454
 -11.000  -1.1723   0.01065   0.00574   0.0085  0.5627  0.0069  -8.7982   0.0000   0.2457
 -10.900  -1.1618   0.01056   0.00565   0.0087  0.5592  0.0069  -8.6561   0.0000   0.2460
 -10.800  -1.1513   0.01048   0.00555   0.0088  0.5547  0.0069  -8.5149   0.0000   0.2464
 -10.600  -1.1304   0.01028   0.00533   0.0091  0.5462  0.0074  -8.2397   0.0000   0.2471
 -10.500  -1.1199   0.01018   0.00522   0.0093  0.5419  0.0077  -8.1033   0.0000   0.2474
 -10.400  -1.1095   0.01008   0.00511   0.0095  0.5365  0.0079  -7.9676   0.0000   0.2478
 -10.300  -1.0990   0.00998   0.00500   0.0096  0.5330  0.0082  -7.8325   0.0000   0.2481
 -10.200  -1.0884   0.00988   0.00490   0.0098  0.5294  0.0084  -7.6981   0.0000   0.2485
 -10.100  -1.0779   0.00979   0.00480   0.0099  0.5248  0.0086  -7.5641   0.0000   0.2488
 -10.000  -1.0673   0.00971   0.00470   0.0100  0.5201  0.0087  -7.4307   0.0000   0.2491
  -9.900  -1.0566   0.00962   0.00461   0.0102  0.5173  0.0089  -7.2979   0.0000   0.2495
  -9.800  -1.0459   0.00955   0.00452   0.0103  0.5134  0.0090  -7.1658   0.0000   0.2498
  -9.700  -1.0351   0.00948   0.00444   0.0104  0.5084  0.0091  -7.0346   0.0000   0.2502
  -9.600  -1.0243   0.00940   0.00436   0.0105  0.5048  0.0092  -6.9040   0.0000   0.2505
  -9.500  -1.0135   0.00933   0.00428   0.0106  0.5017  0.0093  -6.7743   0.0000   0.2508
  -9.400  -1.0027   0.00927   0.00420   0.0107  0.4977  0.0093  -6.6454   0.0000   0.2512
  -9.300  -0.9919   0.00921   0.00413   0.0108  0.4928  0.0094  -6.5178   0.0000   0.2515
  -9.200  -0.9811   0.00912   0.00404   0.0110  0.4900  0.0097  -6.3924   0.0000   0.2519
  -9.100  -0.9703   0.00904   0.00395   0.0111  0.4870  0.0102  -6.2680   0.0000   0.2522
  -9.000  -0.9596   0.00895   0.00386   0.0112  0.4830  0.0106  -6.1445   0.0000   0.2526
  -8.900  -0.9488   0.00887   0.00377   0.0113  0.4781  0.0110  -6.0252   0.0000   0.2530
  -8.800  -0.9380   0.00879   0.00368   0.0114  0.4755  0.0113  -5.9111   0.0000   0.2533
  -8.700  -0.9271   0.00872   0.00361   0.0115  0.4726  0.0116  -5.7976   0.0000   0.2537
  -8.600  -0.9162   0.00866   0.00354   0.0116  0.4690  0.0118  -5.6847   0.0000   0.2541
  -8.500  -0.9052   0.00860   0.00347   0.0117  0.4646  0.0119  -5.5725   0.0000   0.2544
  -8.400  -0.8942   0.00854   0.00340   0.0118  0.4616  0.0120  -5.4609   0.0000   0.2548
  -8.300  -0.8832   0.00848   0.00334   0.0119  0.4591  0.0121  -5.3499   0.0000   0.2551
  -8.200  -0.8722   0.00841   0.00326   0.0120  0.4557  0.0127  -5.2415   0.0000   0.2555
  -8.100  -0.8613   0.00834   0.00318   0.0121  0.4516  0.0134  -5.1341   0.0000   0.2559
  -8.000  -0.8504   0.00826   0.00310   0.0122  0.4478  0.0140  -5.0273   0.0000   0.2563
  -7.900  -0.8395   0.00819   0.00303   0.0123  0.4458  0.0145  -4.9206   0.0000   0.2567
  -7.800  -0.8284   0.00813   0.00297   0.0123  0.4432  0.0148  -4.8146   0.0000   0.2571
  -7.700  -0.8173   0.00808   0.00291   0.0124  0.4398  0.0150  -4.7093   0.0000   0.2575
  -7.600  -0.8062   0.00803   0.00285   0.0125  0.4356  0.0152  -4.6047   0.0000   0.2579
  -7.500  -0.7951   0.00798   0.00280   0.0126  0.4328  0.0153  -4.5008   0.0000   0.2583
  -7.400  -0.7840   0.00792   0.00273   0.0126  0.4307  0.0159  -4.3988   0.0000   0.2587
  -7.300  -0.7730   0.00786   0.00266   0.0127  0.4279  0.0167  -4.2979   0.0000   0.2591
  -7.200  -0.7619   0.00779   0.00260   0.0128  0.4246  0.0173  -4.1978   0.0000   0.2596
  -7.100  -0.7509   0.00774   0.00253   0.0129  0.4206  0.0179  -4.0982   0.0000   0.2600
  -7.000  -0.7397   0.00768   0.00248   0.0129  0.4185  0.0184  -4.0024   0.0000   0.2604
  -6.900  -0.7285   0.00763   0.00243   0.0130  0.4166  0.0187  -3.9114   0.0000   0.2609
  -6.800  -0.7173   0.00759   0.00238   0.0131  0.4140  0.0189  -3.8212   0.0000   0.2613
  -6.700  -0.7062   0.00754   0.00232   0.0131  0.4108  0.0199  -3.7327   0.0000   0.2618
  -6.600  -0.6951   0.00748   0.00226   0.0132  0.4068  0.0208  -3.6449   0.0000   0.2623
  -6.500  -0.6839   0.00742   0.00220   0.0133  0.4045  0.0216  -3.5576   0.0000   0.2628
  -6.400  -0.6727   0.00737   0.00215   0.0133  0.4029  0.0222  -3.4708   0.0000   0.2633
  -6.300  -0.6615   0.00733   0.00210   0.0134  0.4008  0.0226  -3.3845   0.0000   0.2638
  -6.200  -0.6502   0.00729   0.00206   0.0134  0.3981  0.0229  -3.2989   0.0000   0.2643
  -6.100  -0.6390   0.00724   0.00201   0.0135  0.3949  0.0241  -3.2148   0.0000   0.2648
  -5.900  -0.6166   0.00714   0.00191   0.0136  0.3899  0.0262  -3.0488   0.0000   0.2659
  -5.800  -0.6053   0.00709   0.00186   0.0137  0.3881  0.0270  -2.9665   0.0000   0.2665
  -5.700  -0.5940   0.00705   0.00182   0.0137  0.3858  0.0276  -2.8849   0.0000   0.2670
  -5.600  -0.5828   0.00700   0.00177   0.0138  0.3832  0.0293  -2.8107   0.0000   0.2677
  -5.500  -0.5716   0.00696   0.00173   0.0138  0.3802  0.0306  -2.7376   0.0000   0.2683
  -5.400  -0.5603   0.00692   0.00168   0.0138  0.3770  0.0316  -2.6648   0.0000   0.2689
  -5.300  -0.5489   0.00688   0.00164   0.0139  0.3760  0.0321  -2.5924   0.0000   0.2696
  -5.200  -0.5376   0.00684   0.00160   0.0139  0.3744  0.0336  -2.5210   0.0000   0.2702
  -5.100  -0.5263   0.00678   0.00156   0.0140  0.3723  0.0353  -2.4506   0.0000   0.2710
  -5.000  -0.5150   0.00674   0.00152   0.0140  0.3698  0.0366  -2.3806   0.0000   0.2717
  -4.900  -0.5037   0.00672   0.00149   0.0141  0.3669  0.0375  -2.3110   0.0000   0.2724
  -4.800  -0.4924   0.00668   0.00145   0.0141  0.3637  0.0397  -2.2425   0.0000   0.2732
  -4.700  -0.4811   0.00662   0.00140   0.0141  0.3625  0.0418  -2.1763   0.0000   0.2740
  -4.600  -0.4697   0.00658   0.00137   0.0142  0.3614  0.0430  -2.1143   0.0000   0.2749
  -4.500  -0.4583   0.00655   0.00134   0.0142  0.3597  0.0444  -2.0529   0.0000   0.2758
  -4.400  -0.4470   0.00651   0.00130   0.0142  0.3577  0.0469  -1.9925   0.0000   0.2767
  -4.300  -0.4356   0.00647   0.00127   0.0143  0.3552  0.0487  -1.9325   0.0000   0.2776
  -4.200  -0.4242   0.00645   0.00124   0.0143  0.3522  0.0497  -1.8728   0.0000   0.2786
  -4.100  -0.4129   0.00641   0.00120   0.0143  0.3495  0.0530  -1.8141   0.0000   0.2797
  -4.000  -0.4015   0.00636   0.00117   0.0144  0.3486  0.0555  -1.7558   0.0000   0.2808
  -3.900  -0.3901   0.00633   0.00114   0.0144  0.3474  0.0568  -1.7020   0.0000   0.2820
  -3.800  -0.3787   0.00629   0.00111   0.0144  0.3458  0.0601  -1.6496   0.0000   0.2832
  -3.700  -0.3673   0.00626   0.00108   0.0145  0.3440  0.0624  -1.5976   0.0000   0.2845
  -3.600  -0.3559   0.00623   0.00106   0.0145  0.3417  0.0638  -1.5459   0.0000   0.2859
  -3.500  -0.3445   0.00620   0.00103   0.0145  0.3390  0.0675  -1.4950   0.0000   0.2874
  -3.400  -0.3331   0.00617   0.00100   0.0145  0.3361  0.0706  -1.4446   0.0000   0.2889
  -3.300  -0.3216   0.00614   0.00098   0.0146  0.3353  0.0721  -1.3983   0.0000   0.2906
  -3.200  -0.3102   0.00610   0.00095   0.0146  0.3341  0.0758  -1.3528   0.0000   0.2924
  -3.100  -0.2988   0.00607   0.00093   0.0146  0.3326  0.0784  -1.3076   0.0000   0.2943
  -3.000  -0.2873   0.00605   0.00091   0.0146  0.3308  0.0801  -1.2627   0.0000   0.2963
  -2.900  -0.2759   0.00602   0.00089   0.0146  0.3289  0.0843  -1.2188   0.0000   0.2985
  -2.800  -0.2645   0.00599   0.00087   0.0147  0.3266  0.0875  -1.1784   0.0000   0.3009
  -2.700  -0.2530   0.00598   0.00085   0.0147  0.3237  0.0890  -1.1382   0.0000   0.3035
  -2.600  -0.2415   0.00595   0.00083   0.0147  0.3224  0.0928  -1.0985   0.0000   0.3064
  -2.500  -0.2300   0.00591   0.00081   0.0147  0.3215  0.0966  -1.0592   0.0000   0.3095
  -2.400  -0.2185   0.00590   0.00079   0.0147  0.3201  0.0987  -1.0227   0.0000   0.3130
  -2.300  -0.2071   0.00586   0.00077   0.0147  0.3184  0.1036  -0.9871   0.0000   0.3168
  -2.200  -0.1956   0.00584   0.00076   0.0147  0.3165  0.1068  -0.9518   0.0000   0.3211
  -2.100  -0.1841   0.00583   0.00074   0.0147  0.3143  0.1099  -0.9170   0.0000   0.3258
  -2.000  -0.1727   0.00580   0.00073   0.0148  0.3118  0.1156  -0.8850   0.0000   0.3313
  -1.900  -0.1612   0.00578   0.00071   0.0148  0.3097  0.1184  -0.8531   0.0000   0.3374
  -1.800  -0.1497   0.00575   0.00070   0.0148  0.3090  0.1239  -0.8215   0.0000   0.3446
  -1.700  -0.1382   0.00572   0.00068   0.0148  0.3080  0.1285  -0.7918   0.0000   0.3529
  -1.600  -0.1267   0.00569   0.00067   0.0148  0.3066  0.1346  -0.7630   0.0000   0.3627
  -1.500  -0.1153   0.00567   0.00065   0.0148  0.3048  0.1394  -0.7345   0.0000   0.3744
  -1.400  -0.1038   0.00565   0.00064   0.0148  0.3026  0.1454  -0.7072   0.0000   0.3887
  -1.300  -0.0923   0.00563   0.00063   0.0148  0.3001  0.1512  -0.6811   0.0000   0.4065
  -1.200  -0.0809   0.00560   0.00062   0.0148  0.2974  0.1590  -0.6552   0.0000   0.4294
  -1.100  -0.0694   0.00558   0.00061   0.0148  0.2965  0.1639  -0.6513   0.0000   0.4599
  -1.000  -0.0579   0.00554   0.00060   0.0148  0.2957  0.1728  -0.6634   0.0000   0.5024
  -0.900  -0.0464   0.00551   0.00059   0.0148  0.2946  0.1807  -0.6758   0.0000   0.5660
  -0.800  -0.0350   0.00548   0.00058   0.0148  0.2932  0.1877  -0.6882   0.0000   0.6713
  -0.700  -0.0235   0.00545   0.00057   0.0149  0.2914  0.1971  -0.7006   0.0000   0.8785
  -0.600  -0.0121   0.00543   0.00056   0.0149  0.2893  0.2060  -0.7131   0.0000   1.4798
  -0.500  -0.0006   0.00541   0.00056   0.0149  0.2867  0.2142  -0.7256   0.0000  25.2717
  -0.400   0.0108   0.00538   0.00055   0.0149  0.2843  0.2245  -0.7381   0.0000  -1.1267
  -0.300   0.0223   0.00534   0.00054   0.0149  0.2837  0.2345  -0.7507   0.0000  -0.4213
  -0.200   0.0338   0.00531   0.00054   0.0149  0.2827  0.2448  -0.7633   0.0000  -0.1948
  -0.100   0.0453   0.00528   0.00053   0.0149  0.2815  0.2543  -0.7760   0.0000  -0.0830
   0.000   0.0567   0.00525   0.00053   0.0149  0.2801  0.2652  -0.7891   0.0000  -0.0167
   0.100   0.0682   0.00523   0.00052   0.0149  0.2784  0.2764  -0.8023   0.0000   0.0274
   0.200   0.0796   0.00520   0.00052   0.0149  0.2764  0.2878  -0.8156   0.0000   0.0588
   0.300   0.0911   0.00519   0.00052   0.0149  0.2740  0.2978  -0.8289   0.0000   0.0824
   0.400   0.1026   0.00516   0.00052   0.0149  0.2720  0.3078  -0.8423   0.0000   0.1007
   0.500   0.1141   0.00513   0.00052   0.0149  0.2714  0.3192  -0.8557   0.0000   0.1153
   0.600   0.1256   0.00510   0.00052   0.0149  0.2704  0.3302  -0.8691   0.0000   0.1273
   0.700   0.1371   0.00509   0.00052   0.0149  0.2691  0.3396  -0.8827   0.0000   0.1372
   0.800   0.1486   0.00507   0.00052   0.0148  0.2675  0.3490  -0.8962   0.0000   0.1457
   0.900   0.1601   0.00506   0.00053   0.0148  0.2658  0.3575  -0.9098   0.0000   0.1529
   1.000   0.1716   0.00506   0.00053   0.0148  0.2638  0.3661  -0.9238   0.0000   0.1591
   1.100   0.1830   0.00504   0.00054   0.0148  0.2616  0.3770  -0.9380   0.0000   0.1646
   1.200   0.1946   0.00502   0.00054   0.0148  0.2600  0.3869  -0.9523   0.0000   0.1694
   1.300   0.2061   0.00501   0.00055   0.0148  0.2594  0.3944  -0.9666   0.0000   0.1737
   1.400   0.2176   0.00499   0.00055   0.0148  0.2586  0.4037  -0.9810   0.0000   0.1775
   1.500   0.2292   0.00498   0.00056   0.0148  0.2575  0.4125  -0.9954   0.0000   0.1810
   1.600   0.2407   0.00497   0.00056   0.0148  0.2561  0.4215  -1.0099   0.0000   0.1841
   1.700   0.2522   0.00496   0.00057   0.0148  0.2544  0.4321  -1.0243   0.0000   0.1869
   1.800   0.2636   0.00495   0.00059   0.0148  0.2524  0.4419  -1.0388   0.0000   0.1895
   1.900   0.2752   0.00495   0.00060   0.0147  0.2500  0.4507  -1.0533   0.0000   0.1918
   2.000   0.2866   0.00494   0.00060   0.0147  0.2482  0.4620  -1.0680   0.0000   0.1940
   2.100   0.2981   0.00493   0.00062   0.0147  0.2464  0.4729  -1.0833   0.0000   0.1959
   2.200   0.3096   0.00493   0.00063   0.0147  0.2438  0.4833  -1.0986   0.0000   0.1978
   2.300   0.3210   0.00495   0.00065   0.0147  0.2380  0.4938  -1.1137   0.0000   0.1995
   2.400   0.3324   0.00494   0.00066   0.0147  0.2358  0.5056  -1.1291   0.0000   0.2010
   2.500   0.3439   0.00493   0.00068   0.0147  0.2344  0.5176  -1.1445   0.0000   0.2025
   2.600   0.3554   0.00492   0.00069   0.0147  0.2322  0.5297  -1.1599   0.0000   0.2039
   2.700   0.3668   0.00492   0.00071   0.0147  0.2294  0.5418  -1.1753   0.0000   0.2051
   2.800   0.3782   0.00493   0.00073   0.0147  0.2258  0.5545  -1.1907   0.0000   0.2063
   2.900   0.3896   0.00491   0.00075   0.0146  0.2246  0.5679  -1.2063   0.0000   0.2074
   3.000   0.4010   0.00490   0.00076   0.0146  0.2222  0.5826  -1.2218   0.0000   0.2085
   3.100   0.4124   0.00490   0.00079   0.0146  0.2191  0.5989  -1.2374   0.0000   0.2094
   3.200   0.4237   0.00489   0.00081   0.0146  0.2150  0.6177  -1.2535   0.0000   0.2103
   3.300   0.4350   0.00486   0.00083   0.0147  0.2135  0.6392  -1.2698   0.0000   0.2112
   3.400   0.4462   0.00483   0.00085   0.0147  0.2109  0.6614  -1.2861   0.0000   0.2119
   3.500   0.4573   0.00484   0.00089   0.0147  0.2044  0.6848  -1.3021   0.0000   0.2126
   3.600   0.4685   0.00482   0.00091   0.0147  0.2008  0.7063  -1.3184   0.0000   0.2133
   3.700   0.4797   0.00483   0.00095   0.0147  0.1957  0.7267  -1.3346   0.0000   0.2139
   3.800   0.4909   0.00482   0.00098   0.0147  0.1924  0.7456  -1.3510   0.0000   0.2145
   3.900   0.5020   0.00485   0.00102   0.0148  0.1866  0.7627  -1.3673   0.0000   0.2151
   4.000   0.5130   0.00492   0.00108   0.0148  0.1767  0.7778  -1.3835   0.0000   0.2156
   4.200   0.5349   0.00506   0.00122   0.0149  0.1565  0.8084  -1.4159   0.0000   0.2165
   4.300   0.5453   0.00524   0.00134   0.0150  0.1362  0.8246  -1.4333   0.0000   0.2168
   4.400   0.5525   0.00632   0.00199   0.0153  0.0136  0.8345  -1.4401   0.0000   0.2166
   4.500   0.5632   0.00637   0.00206   0.0154  0.0068  0.8510  -1.4569   0.0000   0.2169
   4.600   0.5743   0.00642   0.00212   0.0154  0.0037  0.8593  -1.5059   0.0000   0.2172
   4.700   0.5851   0.00644   0.00217   0.0156  0.0025  0.8760  -1.5852   0.0000   0.2174
   4.800   0.5960   0.00647   0.00223   0.0157  0.0020  0.8869  -1.6540   0.0000   0.2177
   4.900   0.6070   0.00651   0.00228   0.0157  0.0018  0.8952  -1.7305   0.0000   0.2179
   5.000   0.6175   0.00652   0.00233   0.0160  0.0018  0.9105  -1.8101   0.0000   0.2180
   5.100   0.6283   0.00655   0.00239   0.0161  0.0018  0.9201  -1.8941   0.0000   0.2181
   5.200   0.6395   0.00660   0.00245   0.0161  0.0017  0.9245  -1.9815   0.0000   0.2185
   5.300   0.6502   0.00663   0.00251   0.0163  0.0017  0.9380  -2.0687   0.0000   0.2185
   5.400   0.6607   0.00666   0.00256   0.0165  0.0017  0.9495  -2.1570   0.0000   0.2186
   5.500   0.6716   0.00671   0.00263   0.0166  0.0017  0.9565  -2.2484   0.0000   0.2187
   5.600   0.6828   0.00677   0.00269   0.0166  0.0017  0.9600  -2.3423   0.0000   0.2190
   5.700   0.6947   0.00683   0.00275   0.0165  0.0017  0.9670  -2.4402   0.0000   0.2195
   5.800   0.7073   0.00689   0.00282   0.0162  0.0017  0.9756  -2.5428   0.0000   0.2203
   5.900   0.7200   0.00695   0.00289   0.0159  0.0017  0.9818  -2.6474   0.0000   0.2210
   6.000   0.7325   0.00702   0.00296   0.0156  0.0017  0.9863  -2.7525   0.0000   0.2217
   6.100   0.7446   0.00709   0.00303   0.0155  0.0017  0.9890  -2.8576   0.0000   0.2222
   6.200   0.7565   0.00717   0.00310   0.0153  0.0017  0.9907  -2.9629   0.0000   0.2226
   6.300   0.7683   0.00724   0.00318   0.0152  0.0017  0.9920  -3.0688   0.0000   0.2230
   6.400   0.7800   0.00732   0.00325   0.0151  0.0017  0.9930  -3.1757   0.0000   0.2233
   6.500   0.7916   0.00740   0.00333   0.0150  0.0017  0.9938  -3.2836   0.0000   0.2236
   6.600   0.8032   0.00748   0.00341   0.0149  0.0017  0.9945  -3.3925   0.0000   0.2239
   6.700   0.8147   0.00756   0.00350   0.0149  0.0017  0.9951  -3.5023   0.0000   0.2241
   6.800   0.8262   0.00765   0.00358   0.0148  0.0017  0.9956  -3.6131   0.0000   0.2244
   6.900   0.8377   0.00773   0.00367   0.0147  0.0017  0.9961  -3.7248   0.0000   0.2246
   7.000   0.8491   0.00782   0.00377   0.0147  0.0018  0.9965  -3.8374   0.0000   0.2248
   7.100   0.8605   0.00792   0.00386   0.0146  0.0018  0.9969  -3.9508   0.0000   0.2250
   7.200   0.8719   0.00801   0.00396   0.0146  0.0018  0.9972  -4.0649   0.0000   0.2252
   7.300   0.8832   0.00811   0.00406   0.0145  0.0018  0.9975  -4.1796   0.0000   0.2253
   7.400   0.8946   0.00821   0.00417   0.0145  0.0018  0.9978  -4.2950   0.0000   0.2255
   7.500   0.9060   0.00832   0.00428   0.0144  0.0018  0.9981  -4.4109   0.0000   0.2257
   7.600   0.9173   0.00843   0.00440   0.0143  0.0018  0.9983  -4.5301   0.0000   0.2258
   7.700   0.9287   0.00855   0.00452   0.0143  0.0018  0.9985  -4.6493   0.0000   0.2260
   7.800   0.9401   0.00867   0.00465   0.0142  0.0019  0.9987  -4.7678   0.0000   0.2262
   7.900   0.9515   0.00880   0.00479   0.0141  0.0019  0.9989  -4.8848   0.0000   0.2263
   8.000   0.9628   0.00895   0.00495   0.0140  0.0019  0.9991  -4.9993   0.0000   0.2265
   8.100   0.9741   0.00910   0.00512   0.0140  0.0019  0.9992  -5.1099   0.0000   0.2266
   8.200   0.9853   0.00928   0.00532   0.0139  0.0020  0.9993  -5.2146   0.0000   0.2267
   8.300   0.9964   0.00949   0.00555   0.0139  0.0020  0.9994  -5.3120   0.0000   0.2268
   8.400   1.0073   0.00973   0.00582   0.0138  0.0021  0.9995  -5.4008   0.0000   0.2269
   8.500   1.0179   0.01001   0.00614   0.0138  0.0021  0.9996  -5.4802   0.0000   0.2269
   8.600   1.0282   0.01034   0.00652   0.0138  0.0022  0.9997  -5.5496   0.0000   0.2269
   8.700   1.0380   0.01077   0.00699   0.0139  0.0023  0.9997  -5.5994   0.0000   0.2268
   8.800   1.0474   0.01124   0.00752   0.0140  0.0024  0.9998  -5.6454   0.0000   0.2268
   8.900   1.0575   0.01161   0.00792   0.0140  0.0024  0.9998  -5.7314   0.0000   0.2268
   9.000   1.0676   0.01197   0.00831   0.0139  0.0024  0.9999  -5.8220   0.0000   0.2268
   9.100   1.0763   0.01254   0.00893   0.0140  0.0025  0.9999  -5.8690   0.0000   0.2267
   9.700   1.0894   0.01882   0.01550   0.0196  0.0029  1.0000  -5.6593   0.0000   0.2210
   9.800   1.0957   0.01924   0.01594   0.0201  0.0029  1.0000  -5.7518   0.0000   0.2205
   9.900   1.1019   0.01967   0.01639   0.0207  0.0029  1.0000  -5.8440   0.0000   0.2200
  10.000   1.1079   0.02011   0.01684   0.0213  0.0029  1.0000  -5.9356   0.0000   0.2194
  10.100   1.1138   0.02056   0.01731   0.0219  0.0029  1.0000  -6.0267   0.0000   0.2189
  10.200   1.1196   0.02102   0.01778   0.0225  0.0029  1.0000  -6.1172   0.0000   0.2183
  10.300   1.1252   0.02148   0.01826   0.0231  0.0029  1.0000  -6.2070   0.0000   0.2177
  10.400   1.1306   0.02195   0.01876   0.0237  0.0029  1.0000  -6.2959   0.0000   0.2172
  10.500   1.1358   0.02244   0.01926   0.0243  0.0029  1.0000  -6.3838   0.0000   0.2166
  10.600   1.1408   0.02293   0.01978   0.0249  0.0029  1.0000  -6.4706   0.0000   0.2160
  10.700   1.1456   0.02344   0.02030   0.0255  0.0029  1.0000  -6.5561   0.0000   0.2154
  10.800   1.1501   0.02395   0.02084   0.0262  0.0029  1.0000  -6.6400   0.0000   0.2148
  10.900   1.1543   0.02447   0.02139   0.0268  0.0029  1.0000  -6.7221   0.0000   0.2142
  11.000   1.1582   0.02501   0.02195   0.0275  0.0029  1.0000  -6.8022   0.0000   0.2136
  11.100   1.1619   0.02557   0.02253   0.0281  0.0029  1.0000  -6.8814   0.0000   0.2129
  11.200   1.1633   0.02611   0.02309   0.0292  0.0029  1.0000  -6.9471   0.0000   0.2119
  11.300   1.1595   0.02651   0.02352   0.0311  0.0029  1.0000  -6.9817   0.0000   0.2100
  11.400   1.1580   0.02700   0.02404   0.0325  0.0029  1.0000  -7.0297   0.0000   0.2087
  11.500   1.1567   0.02755   0.02462   0.0336  0.0029  1.0000  -7.0768   0.0000   0.2075
  11.600   1.1557   0.02819   0.02528   0.0344  0.0029  1.0000  -7.1247   0.0000   0.2067
  11.700   1.1550   0.02890   0.02602   0.0349  0.0029  1.0000  -7.1724   0.0000   0.2061
  11.800   1.1544   0.02968   0.02684   0.0351  0.0029  1.0000  -7.2192   0.0000   0.2057
  11.900   1.1539   0.03051   0.02770   0.0351  0.0028  1.0000  -7.2654   0.0000   0.2055
  12.000   1.1536   0.03139   0.02861   0.0350  0.0028  1.0000  -7.3116   0.0000   0.2054
  12.100   1.1534   0.03233   0.02958   0.0348  0.0028  1.0000  -7.3578   0.0000   0.2054
  12.200   1.1532   0.03330   0.03059   0.0346  0.0028  1.0000  -7.4038   0.0000   0.2055
  12.300   1.1530   0.03431   0.03163   0.0343  0.0028  1.0000  -7.4487   0.0000   0.2055
  12.400   1.1526   0.03534   0.03269   0.0340  0.0028  1.0000  -7.4924   0.0000   0.2056
  12.500   1.1521   0.03639   0.03378   0.0337  0.0028  1.0000  -7.5345   0.0000   0.2057
  12.600   1.1513   0.03746   0.03488   0.0334  0.0028  1.0000  -7.5743   0.0000   0.2057
  12.700   1.1503   0.03855   0.03600   0.0331  0.0028  1.0000  -7.6123   0.0000   0.2058
  12.800   1.1491   0.03968   0.03716   0.0327  0.0028  1.0000  -7.6485   0.0000   0.2059
  12.900   1.1477   0.04085   0.03836   0.0324  0.0028  1.0000  -7.6829   0.0000   0.2060
  13.000   1.1461   0.04204   0.03958   0.0320  0.0028  1.0000  -7.7155   0.0000   0.2061
  13.100   1.1443   0.04326   0.04084   0.0316  0.0028  1.0000  -7.7463   0.0000   0.2062
  13.200   1.1423   0.04451   0.04212   0.0311  0.0028  1.0000  -7.7745   0.0000   0.2064
  13.300   1.1400   0.04579   0.04343   0.0307  0.0028  1.0000  -7.7997   0.0000   0.2066
  13.400   1.1375   0.04709   0.04477   0.0302  0.0028  1.0000  -7.8236   0.0000   0.2067
  13.500   1.1349   0.04843   0.04613   0.0297  0.0028  1.0000  -7.8461   0.0000   0.2070
  13.600   1.1320   0.04982   0.04756   0.0291  0.0028  1.0000  -7.8652   0.0000   0.2072
  13.700   1.1291   0.05124   0.04901   0.0285  0.0028  1.0000  -7.8832   0.0000   0.2075
  13.800   1.1260   0.05268   0.05048   0.0279  0.0028  1.0000  -7.9001   0.0000   0.2078
  13.900   1.1225   0.05417   0.05201   0.0272  0.0028  1.0000  -7.9125   0.0000   0.2081
  14.000   1.1190   0.05566   0.05354   0.0266  0.0028  1.0000  -7.9246   0.0000   0.2084
  14.100   1.1153   0.05721   0.05511   0.0259  0.0028  1.0000  -7.9344   0.0000   0.2088
  14.200   1.1113   0.05881   0.05675   0.0251  0.0028  1.0000  -7.9412   0.0000   0.2092
  14.300   1.1076   0.06041   0.05838   0.0243  0.0028  1.0000  -7.9490   0.0000   0.2096
  14.400   1.1033   0.06210   0.06010   0.0235  0.0028  1.0000  -7.9513   0.0000   0.2101
  14.500   1.0992   0.06377   0.06180   0.0227  0.0028  1.0000  -7.9546   0.0000   0.2105
  14.600   1.0948   0.06552   0.06359   0.0218  0.0028  1.0000  -7.9547   0.0000   0.2111
  14.700   1.0906   0.06733   0.06542   0.0209  0.0028  1.0000  -7.9546   0.0000   0.2117
  14.800   1.0864   0.06917   0.06730   0.0199  0.0028  1.0000  -7.9541   0.0000   0.2123
  14.900   1.0820   0.07110   0.06926   0.0188  0.0028  1.0000  -7.9499   0.0000   0.2130
  15.000   1.0778   0.07301   0.07121   0.0178  0.0028  1.0000  -7.9478   0.0000   0.2137
  15.100   1.0731   0.07504   0.07327   0.0167  0.0028  1.0000  -7.9391   0.0000   0.2145
  15.200   1.0689   0.07700   0.07526   0.0156  0.0028  1.0000  -7.9340   0.0000   0.2152
  15.300   1.0640   0.07912   0.07741   0.0144  0.0028  1.0000  -7.9213   0.0000   0.2161
  15.400   1.0596   0.08117   0.07950   0.0133  0.0028  1.0000  -7.9132   0.0000   0.2169
  15.500   1.0546   0.08338   0.08174   0.0120  0.0028  1.0000  -7.8972   0.0000   0.2179
  15.600   1.0502   0.08551   0.08390   0.0109  0.0028  1.0000  -7.8858   0.0000   0.2188
  15.700   1.0451   0.08779   0.08621   0.0095  0.0028  1.0000  -7.8665   0.0000   0.2198
  15.800   1.0405   0.08998   0.08843   0.0083  0.0028  1.0000  -7.8513   0.0000   0.2208
  15.900   1.0353   0.09231   0.09080   0.0070  0.0028  1.0000  -7.8287   0.0000   0.2219
  16.000   1.0307   0.09458   0.09310   0.0057  0.0028  1.0000  -7.8101   0.0000   0.2229
  16.100   1.0255   0.09698   0.09553   0.0043  0.0028  1.0000  -7.7846   0.0000   0.2241
  16.200   1.0208   0.09931   0.09790   0.0029  0.0028  1.0000  -7.7625   0.0000   0.2252
  16.300   1.0157   0.10176   0.10037   0.0015  0.0028  1.0000  -7.7339   0.0000   0.2265
  16.400   1.0109   0.10415   0.10279   0.0001  0.0028  1.0000  -7.7076   0.0000   0.2277
  16.500   1.0057   0.10662   0.10529  -0.0014  0.0028  1.0000  -7.6760   0.0000   0.2290
  16.600   1.0008   0.10907   0.10778  -0.0029  0.0028  1.0000  -7.6453   0.0000   0.2303
  16.700   0.9958   0.11158   0.11032  -0.0044  0.0028  1.0000  -7.6111   0.0000   0.2317
  16.800   0.9908   0.11411   0.11287  -0.0059  0.0028  1.0000  -7.5756   0.0000   0.2331
  16.900   0.9859   0.11664   0.11543  -0.0075  0.0028  1.0000  -7.5388   0.0000   0.2346
  17.000   0.9808   0.11924   0.11806  -0.0091  0.0028  1.0000  -7.4974   0.0000   0.2361
  17.100   0.9760   0.12177   0.12062  -0.0106  0.0028  1.0000  -7.4577   0.0000   0.2376
  17.200   0.9707   0.12444   0.12332  -0.0123  0.0028  1.0000  -7.4099   0.0000   0.2393
  17.300   0.9661   0.12699   0.12590  -0.0139  0.0028  1.0000  -7.3677   0.0000   0.2409
  17.400   0.9608   0.12974   0.12867  -0.0156  0.0028  1.0000  -7.3134   0.0000   0.2427
  17.500   0.9562   0.13232   0.13129  -0.0173  0.0028  1.0000  -7.2663   0.0000   0.2443
  17.600   0.9509   0.13512   0.13411  -0.0191  0.0028  1.0000  -7.2063   0.0000   0.2462
  17.700   0.9459   0.13782   0.13684  -0.0208  0.0028  1.0000  -7.1492   0.0000   0.2480
  17.800   0.9409   0.14059   0.13964  -0.0225  0.0028  1.0000  -7.0862   0.0000   0.2499
  17.900   0.9355   0.14346   0.14253  -0.0244  0.0028  1.0000  -7.0162   0.0000   0.2520
  18.000   0.9308   0.14621   0.14532  -0.0261  0.0028  1.0000  -6.9503   0.0000   0.2539
  18.100   0.9252   0.14922   0.14835  -0.0281  0.0028  1.0000  -6.8680   0.0000   0.2561
  18.200   0.9199   0.15220   0.15136  -0.0300  0.0028  1.0000  -6.7832   0.0000   0.2584
  18.300   0.9148   0.15516   0.15434  -0.0319  0.0028  1.0000  -6.6973   0.0000   0.2606
  18.400   0.9089   0.15836   0.15757  -0.0339  0.0028  1.0000  -6.5928   0.0000   0.2630
  18.500   0.9028   0.16167   0.16091  -0.0360  0.0028  1.0000  -6.4769   0.0000   0.2656
  18.600   0.8965   0.16511   0.16438  -0.0382  0.0028  1.0000  -6.3476   0.0000   0.2684
  18.700   0.8898   0.16876   0.16806  -0.0405  0.0028  1.0000  -6.1968   0.0000   0.2713
  18.800   0.8823   0.17277   0.17210  -0.0429  0.0028  1.0000  -6.0111   0.0000   0.2746
  18.900   0.8728   0.17758   0.17694  -0.0458  0.0028  1.0000  -5.7485   0.0000   0.2786


