xflr5 v6.47

 Calculated polar for: 763ER

 1 1 Reynolds number fixed          Mach number fixed         

 xtrf =   1.000 (top)        1.000 (bottom)
 Mach =   0.000     Re =     5.000 e 6     Ncrit =   9.000

  alpha     CL        CD       CDp       Cm    Top Xtr Bot Xtr   Cpmin    Chinge    XCp    
 ------- -------- --------- --------- -------- ------- ------- -------- --------- ---------
 -25.000  -0.8857   0.23535   0.23456   0.0825  1.0000  0.0028  -7.4579   0.0000   0.3142
 -24.900  -0.8845   0.23410   0.23331   0.0817  1.0000  0.0029  -7.4784   0.0000   0.3135
 -24.700  -0.8925   0.22835   0.22752   0.0787  1.0000  0.0031  -8.0413   0.0000   0.3089
 -24.600  -0.8917   0.22702   0.22618   0.0779  1.0000  0.0031  -8.0704   0.0000   0.3081
 -24.500  -0.8908   0.22572   0.22488   0.0770  1.0000  0.0032  -8.0926   0.0000   0.3073
 -24.400  -0.8974   0.22229   0.22143   0.0752  1.0000  0.0032  -8.4478   0.0000   0.3043
 -24.300  -0.8973   0.22079   0.21991   0.0743  1.0000  0.0033  -8.4981   0.0000   0.3033
 -24.200  -0.8965   0.21949   0.21861   0.0734  1.0000  0.0033  -8.5140   0.0000   0.3025
 -24.100  -0.8954   0.21826   0.21737   0.0725  1.0000  0.0033  -8.5186   0.0000   0.3018
 -24.000  -0.8943   0.21704   0.21614   0.0717  1.0000  0.0033  -8.5202   0.0000   0.3011
 -23.900  -0.8933   0.21579   0.21489   0.0708  1.0000  0.0033  -8.5256   0.0000   0.3004
 -23.800  -0.8924   0.21451   0.21360   0.0700  1.0000  0.0034  -8.5354   0.0000   0.2996
 -23.700  -0.8974   0.21168   0.21076   0.0683  1.0000  0.0036  -8.7768   0.0000   0.2972
 -23.600  -0.8979   0.21005   0.20913   0.0673  1.0000  0.0037  -8.8328   0.0000   0.2960
 -23.500  -0.8979   0.20853   0.20760   0.0663  1.0000  0.0037  -8.8718   0.0000   0.2950
 -23.400  -0.8979   0.20704   0.20611   0.0653  1.0000  0.0038  -8.9037   0.0000   0.2940
 -23.200  -0.9050   0.20230   0.20134   0.0624  1.0000  0.0040  -9.2194   0.0000   0.2900
 -23.100  -0.9057   0.20063   0.19966   0.0613  1.0000  0.0040  -9.2705   0.0000   0.2888
 -23.000  -0.9058   0.19912   0.19815   0.0602  1.0000  0.0041  -9.2977   0.0000   0.2878
 -22.900  -0.9059   0.19762   0.19665   0.0592  1.0000  0.0042  -9.3221   0.0000   0.2868
 -22.800  -0.9116   0.19482   0.19382   0.0575  1.0000  0.0042  -9.5301   0.0000   0.2844
 -22.700  -0.9135   0.19288   0.19188   0.0562  1.0000  0.0043  -9.6108   0.0000   0.2829
 -22.600  -0.9142   0.19127   0.19025   0.0551  1.0000  0.0043  -9.6456   0.0000   0.2818
 -22.500  -0.9145   0.18971   0.18869   0.0541  1.0000  0.0044  -9.6706   0.0000   0.2807
 -22.400  -0.9153   0.18805   0.18702   0.0529  1.0000  0.0044  -9.7083   0.0000   0.2795
 -22.300  -0.9229   0.18488   0.18383   0.0509  1.0000  0.0044  -9.9487   0.0000   0.2767
 -22.200  -0.9243   0.18311   0.18205   0.0497  1.0000  0.0045  -9.9959   0.0000   0.2755
 -22.100  -0.9254   0.18139   0.18031   0.0485  1.0000  0.0045  -10.0353   0.0000   0.2742
 -22.000  -0.9273   0.17949   0.17841   0.0473  1.0000  0.0045  -10.0953   0.0000   0.2728
 -21.900  -0.9357   0.17623   0.17511   0.0451  1.0000  0.0046  -10.3343   0.0000   0.2700
 -21.800  -0.9382   0.17423   0.17311   0.0438  1.0000  0.0046  -10.4022   0.0000   0.2685
 -21.700  -0.9407   0.17223   0.17109   0.0424  1.0000  0.0046  -10.4687   0.0000   0.2671
 -21.600  -0.9512   0.16860   0.16743   0.0400  1.0000  0.0046  -10.7423   0.0000   0.2639
 -21.500  -0.9549   0.16637   0.16518   0.0385  1.0000  0.0046  -10.8315   0.0000   0.2623
 -21.400  -0.9598   0.16390   0.16270   0.0368  1.0000  0.0047  -10.9477   0.0000   0.2604
 -21.300  -0.9724   0.15989   0.15865   0.0341  1.0000  0.0047  -11.2540   0.0000   0.2570
 -21.200  -0.9868   0.15557   0.15429   0.0311  1.0000  0.0047  -11.5914   0.0000   0.2534
 -21.100  -0.9954   0.15244   0.15113   0.0290  1.0000  0.0047  -11.7770   0.0000   0.2510
 -21.000  -1.0150   0.14717   0.14581   0.0253  1.0000  0.0046  -12.2149   0.0000   0.2468
 -20.800  -1.0681   0.13422   0.13272   0.0162  1.0000  0.0046  -13.3439   0.0000   0.2368
 -20.700  -1.1337   0.12072   0.11906   0.0066  1.0000  0.0044  -14.6932   0.0000   0.2272
 -20.600  -1.2054   0.10646   0.10461  -0.0034  1.0000  0.0042  -16.0874   0.0000   0.2184
 -20.500  -1.2725   0.09325   0.09122  -0.0126  1.0000  0.0039  -17.3253   0.0000   0.2114
 -20.400  -1.3206   0.08365   0.08147  -0.0191  1.0000  0.0037  -18.1552   0.0000   0.2069
 -20.300  -1.3562   0.07642   0.07414  -0.0239  1.0000  0.0036  -18.7297   0.0000   0.2040
 -20.200  -1.3860   0.07033   0.06795  -0.0278  1.0000  0.0035  -19.1841   0.0000   0.2017
 -20.100  -1.4098   0.06539   0.06293  -0.0310  1.0000  0.0035  -19.5198   0.0000   0.2000
 -20.000  -1.4301   0.06112   0.05858  -0.0337  1.0000  0.0034  -19.7850   0.0000   0.1987
 -19.900  -1.4475   0.05739   0.05478  -0.0359  1.0000  0.0034  -19.9937   0.0000   0.1977
 -19.800  -1.4626   0.05409   0.05143  -0.0379  1.0000  0.0034  -20.1584   0.0000   0.1969
 -19.700  -1.4760   0.05115   0.04842  -0.0395  1.0000  0.0034  -20.2887   0.0000   0.1963
 -19.600  -1.4879   0.04848   0.04571  -0.0409  1.0000  0.0034  -20.3901   0.0000   0.1958
 -19.500  -1.4985   0.04607   0.04325  -0.0421  1.0000  0.0034  -20.4662   0.0000   0.1954
 -19.400  -1.5080   0.04388   0.04100  -0.0431  1.0000  0.0034  -20.5220   0.0000   0.1952
 -19.300  -1.5168   0.04186   0.03894  -0.0439  1.0000  0.0034  -20.5615   0.0000   0.1951
 -19.200  -1.5249   0.04002   0.03705  -0.0445  1.0000  0.0034  -20.5875   0.0000   0.1951
 -19.100  -1.5324   0.03832   0.03531  -0.0450  1.0000  0.0034  -20.6016   0.0000   0.1952
 -19.000  -1.5395   0.03677   0.03372  -0.0452  1.0000  0.0034  -20.6049   0.0000   0.1954
 -18.900  -1.5461   0.03536   0.03227  -0.0453  1.0000  0.0034  -20.5988   0.0000   0.1956
 -18.800  -1.5522   0.03407   0.03094  -0.0453  1.0000  0.0035  -20.5817   0.0000   0.1960
 -18.700  -1.5580   0.03287   0.02971  -0.0450  1.0000  0.0035  -20.5582   0.0000   0.1965
 -18.600  -1.5634   0.03178   0.02858  -0.0447  1.0000  0.0035  -20.5272   0.0000   0.1971
 -18.500  -1.5685   0.03078   0.02754  -0.0441  1.0000  0.0035  -20.4889   0.0000   0.1977
 -18.400  -1.5732   0.02986   0.02659  -0.0435  1.0000  0.0035  -20.4439   0.0000   0.1984
 -18.300  -1.5775   0.02902   0.02571  -0.0428  1.0000  0.0036  -20.3918   0.0000   0.1991
 -18.200  -1.5815   0.02825   0.02491  -0.0420  1.0000  0.0036  -20.3339   0.0000   0.1999
 -18.100  -1.5856   0.02752   0.02416  -0.0410  1.0000  0.0036  -20.2749   0.0000   0.2008
 -18.000  -1.5891   0.02685   0.02346  -0.0400  1.0000  0.0037  -20.2081   0.0000   0.2017
 -17.900  -1.5921   0.02624   0.02282  -0.0389  1.0000  0.0037  -20.1330   0.0000   0.2026
 -17.800  -1.5955   0.02566   0.02221  -0.0377  1.0000  0.0037  -20.0621   0.0000   0.2036
 -17.700  -1.5977   0.02514   0.02166  -0.0365  1.0000  0.0038  -19.9754   0.0000   0.2046
 -17.600  -1.6006   0.02464   0.02114  -0.0351  1.0000  0.0038  -19.8970   0.0000   0.2057
 -17.500  -1.6024   0.02420   0.02067  -0.0338  1.0000  0.0039  -19.8030   0.0000   0.2067
 -17.400  -1.6045   0.02378   0.02022  -0.0324  1.0000  0.0039  -19.7125   0.0000   0.2078
 -17.300  -1.6067   0.02337   0.01979  -0.0308  1.0000  0.0039  -19.6223   0.0000   0.2090
 -17.200  -1.6076   0.02300   0.01940  -0.0294  1.0000  0.0040  -19.5153   0.0000   0.2101
 -17.100  -1.6095   0.02265   0.01902  -0.0277  1.0000  0.0040  -19.4206   0.0000   0.2113
 -17.000  -1.6113   0.02232   0.01867  -0.0260  1.0000  0.0040  -19.3230   0.0000   0.2125
 -16.900  -1.6111   0.02202   0.01835  -0.0245  1.0000  0.0041  -19.2024   0.0000   0.2136
 -16.800  -1.6114   0.02174   0.01805  -0.0229  1.0000  0.0041  -19.0865   0.0000   0.2148
 -16.700  -1.6128   0.02148   0.01777  -0.0210  1.0000  0.0042  -18.9835   0.0000   0.2162
 -16.600  -1.6166   0.02127   0.01754  -0.0186  1.0000  0.0042  -18.9073   0.0000   0.2179
 -16.500  -1.6177   0.02104   0.01728  -0.0166  1.0000  0.0042  -18.7998   0.0000   0.2192
 -16.400  -1.6141   0.02077   0.01700  -0.0156  1.0000  0.0043  -18.6398   0.0000   0.2200
 -16.300  -1.6100   0.02051   0.01671  -0.0146  1.0000  0.0043  -18.4735   0.0000   0.2208
 -16.200  -1.6054   0.02025   0.01644  -0.0137  1.0000  0.0044  -18.3024   0.0000   0.2215
 -16.100  -1.6004   0.01999   0.01617  -0.0128  1.0000  0.0044  -18.1267   0.0000   0.2222
 -16.000  -1.5950   0.01975   0.01591  -0.0120  1.0000  0.0045  -17.9474   0.0000   0.2228
 -15.900  -1.5893   0.01951   0.01565  -0.0113  1.0000  0.0045  -17.7652   0.0000   0.2235
 -15.800  -1.5833   0.01927   0.01540  -0.0106  1.0000  0.0045  -17.5804   0.0000   0.2241
 -15.700  -1.5770   0.01904   0.01516  -0.0099  1.0000  0.0046  -17.3934   0.0000   0.2247
 -15.600  -1.5705   0.01881   0.01492  -0.0092  1.0000  0.0046  -17.2044   0.0000   0.2252
 -15.500  -1.5637   0.01859   0.01468  -0.0086  1.0000  0.0047  -17.0138   0.0000   0.2258
 -15.400  -1.5568   0.01838   0.01445  -0.0080  1.0000  0.0047  -16.8218   0.0000   0.2263
 -15.300  -1.5497   0.01817   0.01423  -0.0074  1.0000  0.0047  -16.6285   0.0000   0.2268
 -15.200  -1.5423   0.01796   0.01401  -0.0069  1.0000  0.0048  -16.4343   0.0000   0.2274
 -15.100  -1.5349   0.01776   0.01379  -0.0064  1.0000  0.0048  -16.2391   0.0000   0.2279
 -15.000  -1.5272   0.01756   0.01358  -0.0058  1.0000  0.0048  -16.0432   0.0000   0.2283
 -14.900  -1.5194   0.01736   0.01337  -0.0054  1.0000  0.0048  -15.8468   0.0000   0.2288
 -14.800  -1.5115   0.01717   0.01317  -0.0049  1.0000  0.0049  -15.6499   0.0000   0.2293
 -14.700  -1.5035   0.01699   0.01297  -0.0044  1.0000  0.0049  -15.4527   0.0000   0.2297
 -14.600  -1.4953   0.01680   0.01277  -0.0040  1.0000  0.0049  -15.2553   0.0000   0.2302
 -14.500  -1.4870   0.01662   0.01258  -0.0036  1.0000  0.0049  -15.0578   0.0000   0.2306
 -14.400  -1.4786   0.01644   0.01239  -0.0031  1.0000  0.0049  -14.8604   0.0000   0.2311
 -14.300  -1.4702   0.01627   0.01221  -0.0027  1.0000  0.0049  -14.6630   0.0000   0.2315
 -14.200  -1.4619   0.01607   0.01199  -0.0023  1.0000  0.0050  -14.4710   0.0000   0.2320
 -14.100  -1.4537   0.01585   0.01176  -0.0019  1.0000  0.0051  -14.2811   0.0000   0.2324
 -14.000  -1.4454   0.01564   0.01154  -0.0014  1.0000  0.0052  -14.0908   0.0000   0.2329
 -13.900  -1.4370   0.01544   0.01132  -0.0010  1.0000  0.0054  -13.9003   0.0000   0.2333
 -13.800  -1.4284   0.01524   0.01111  -0.0006  1.0000  0.0055  -13.7096   0.0000   0.2338
 -13.700  -1.4198   0.01504   0.01090  -0.0003  1.0000  0.0056  -13.5191   0.0000   0.2342
 -13.600  -1.4111   0.01485   0.01071   0.0001  1.0000  0.0057  -13.3284   0.0000   0.2346
 -13.500  -1.4022   0.01466   0.01051   0.0005  1.0000  0.0058  -13.1377   0.0000   0.2350
 -13.400  -1.3933   0.01448   0.01032   0.0008  1.0000  0.0060  -12.9473   0.0000   0.2354
 -13.300  -1.3843   0.01430   0.01014   0.0012  1.0000  0.0061  -12.7571   0.0000   0.2359
 -13.200  -1.3751   0.01413   0.00996   0.0015  1.0000  0.0061  -12.5670   0.0000   0.2363
 -13.100  -1.3659   0.01397   0.00979   0.0018  1.0000  0.0062  -12.3772   0.0000   0.2366
 -13.000  -1.3566   0.01381   0.00962   0.0021  1.0000  0.0063  -12.1876   0.0000   0.2370
 -12.900  -1.3472   0.01365   0.00946   0.0024  1.0000  0.0064  -11.9986   0.0000   0.2374
 -12.800  -1.3377   0.01350   0.00930   0.0026  1.0000  0.0065  -11.8101   0.0000   0.2378
 -12.700  -1.3282   0.01336   0.00915   0.0029  1.0000  0.0066  -11.6221   0.0000   0.2382
 -12.600  -1.3186   0.01321   0.00900   0.0032  1.0000  0.0067  -11.4348   0.0000   0.2385
 -12.500  -1.3089   0.01308   0.00886   0.0034  1.0000  0.0067  -11.2480   0.0000   0.2389
 -12.400  -1.2992   0.01294   0.00872   0.0037  1.0000  0.0068  -11.0619   0.0000   0.2393
 -12.300  -1.2894   0.01281   0.00858   0.0039  1.0000  0.0068  -10.8765   0.0000   0.2396
 -12.200  -1.2795   0.01269   0.00845   0.0041  1.0000  0.0069  -10.6920   0.0000   0.2400
 -12.100  -1.2696   0.01256   0.00832   0.0044  1.0000  0.0069  -10.5084   0.0000   0.2403
 -12.000  -1.2596   0.01244   0.00819   0.0046  1.0000  0.0069  -10.3257   0.0000   0.2407
 -11.900  -1.2496   0.01232   0.00807   0.0048  1.0000  0.0069  -10.1442   0.0000   0.2410
 -11.800  -1.2400   0.01216   0.00789   0.0051  1.0000  0.0071  -9.9694   0.0000   0.2414
 -11.700  -1.2324   0.01254   0.00769   0.0057  0.7177  0.0073  -9.8145   0.0000   0.2421
 -11.600  -1.2228   0.01245   0.00752   0.0060  0.6871  0.0076  -9.6419   0.0000   0.2425
 -11.500  -1.2130   0.01233   0.00737   0.0062  0.6689  0.0078  -9.4691   0.0000   0.2429
 -11.400  -1.2031   0.01221   0.00722   0.0064  0.6560  0.0080  -9.2964   0.0000   0.2432
 -11.300  -1.1931   0.01210   0.00707   0.0066  0.6458  0.0082  -9.1244   0.0000   0.2436
 -11.200  -1.1831   0.01198   0.00693   0.0068  0.6365  0.0083  -8.9832   0.0000   0.2440
 -11.100  -1.1730   0.01187   0.00680   0.0070  0.6297  0.0085  -8.8437   0.0000   0.2443
 -11.000  -1.1628   0.01176   0.00667   0.0072  0.6226  0.0086  -8.7046   0.0000   0.2447
 -10.900  -1.1526   0.01165   0.00655   0.0074  0.6171  0.0088  -8.5659   0.0000   0.2450
 -10.800  -1.1423   0.01155   0.00643   0.0076  0.6112  0.0089  -8.4279   0.0000   0.2454
 -10.700  -1.1320   0.01146   0.00632   0.0078  0.6053  0.0090  -8.2904   0.0000   0.2457
 -10.600  -1.1216   0.01136   0.00621   0.0079  0.6004  0.0091  -8.1535   0.0000   0.2460
 -10.500  -1.1112   0.01127   0.00610   0.0081  0.5945  0.0092  -8.0173   0.0000   0.2464
 -10.400  -1.1007   0.01118   0.00599   0.0082  0.5896  0.0092  -7.8817   0.0000   0.2467
 -10.300  -1.0902   0.01110   0.00589   0.0084  0.5848  0.0093  -7.7467   0.0000   0.2471
 -10.200  -1.0797   0.01102   0.00579   0.0085  0.5794  0.0093  -7.6125   0.0000   0.2474
 -10.100  -1.0693   0.01091   0.00567   0.0087  0.5753  0.0095  -7.4819   0.0000   0.2478
 -10.000  -1.0589   0.01079   0.00553   0.0089  0.5708  0.0099  -7.3531   0.0000   0.2481
  -9.900  -1.0486   0.01068   0.00541   0.0090  0.5656  0.0102  -7.2245   0.0000   0.2485
  -9.800  -1.0381   0.01057   0.00529   0.0092  0.5613  0.0106  -7.0959   0.0000   0.2489
  -9.700  -1.0276   0.01047   0.00518   0.0094  0.5569  0.0108  -6.9676   0.0000   0.2492
  -9.600  -1.0171   0.01037   0.00507   0.0095  0.5518  0.0111  -6.8399   0.0000   0.2496
  -9.500  -1.0065   0.01028   0.00497   0.0096  0.5476  0.0114  -6.7125   0.0000   0.2499
  -9.400  -0.9959   0.01020   0.00487   0.0098  0.5437  0.0116  -6.5857   0.0000   0.2503
  -9.300  -0.9852   0.01012   0.00478   0.0099  0.5391  0.0118  -6.4596   0.0000   0.2506
  -9.200  -0.9745   0.01005   0.00469   0.0100  0.5344  0.0119  -6.3343   0.0000   0.2510
  -9.100  -0.9637   0.00997   0.00461   0.0101  0.5310  0.0120  -6.2094   0.0000   0.2513
  -9.000  -0.9529   0.00991   0.00453   0.0102  0.5266  0.0121  -6.0853   0.0000   0.2517
  -8.900  -0.9422   0.00981   0.00442   0.0104  0.5217  0.0126  -5.9701   0.0000   0.2521
  -8.800  -0.9316   0.00971   0.00431   0.0105  0.5183  0.0132  -5.8592   0.0000   0.2525
  -8.700  -0.9210   0.00961   0.00421   0.0107  0.5146  0.0137  -5.7480   0.0000   0.2528
  -8.600  -0.9102   0.00952   0.00411   0.0108  0.5104  0.0142  -5.6371   0.0000   0.2532
  -8.500  -0.8994   0.00945   0.00402   0.0109  0.5058  0.0145  -5.5265   0.0000   0.2536
  -8.400  -0.8886   0.00938   0.00394   0.0110  0.5029  0.0148  -5.4165   0.0000   0.2540
  -8.300  -0.8777   0.00931   0.00387   0.0111  0.4991  0.0150  -5.3072   0.0000   0.2543
  -8.200  -0.8667   0.00925   0.00379   0.0112  0.4947  0.0152  -5.1986   0.0000   0.2547
  -8.100  -0.8558   0.00920   0.00372   0.0113  0.4907  0.0153  -5.0906   0.0000   0.2551
  -8.000  -0.8449   0.00911   0.00363   0.0114  0.4878  0.0159  -4.9857   0.0000   0.2555
  -7.900  -0.8341   0.00902   0.00354   0.0115  0.4842  0.0166  -4.8814   0.0000   0.2559
  -7.800  -0.8233   0.00895   0.00345   0.0116  0.4801  0.0172  -4.7774   0.0000   0.2563
  -7.700  -0.8124   0.00887   0.00337   0.0117  0.4764  0.0177  -4.6737   0.0000   0.2567
  -7.600  -0.8014   0.00880   0.00330   0.0118  0.4736  0.0182  -4.5704   0.0000   0.2571
  -7.500  -0.7904   0.00874   0.00323   0.0119  0.4701  0.0185  -4.4678   0.0000   0.2575
  -7.400  -0.7793   0.00869   0.00317   0.0120  0.4660  0.0188  -4.3657   0.0000   0.2579
  -7.300  -0.7683   0.00864   0.00309   0.0120  0.4621  0.0193  -4.2654   0.0000   0.2583
  -7.200  -0.7574   0.00855   0.00301   0.0121  0.4598  0.0203  -4.1667   0.0000   0.2588
  -7.100  -0.7464   0.00848   0.00294   0.0122  0.4568  0.0211  -4.0684   0.0000   0.2592
  -7.000  -0.7354   0.00841   0.00287   0.0123  0.4533  0.0217  -3.9756   0.0000   0.2597
  -6.900  -0.7243   0.00836   0.00280   0.0124  0.4491  0.0223  -3.8858   0.0000   0.2601
  -6.800  -0.7132   0.00831   0.00275   0.0125  0.4466  0.0227  -3.7964   0.0000   0.2606
  -6.700  -0.7021   0.00826   0.00269   0.0125  0.4439  0.0231  -3.7079   0.0000   0.2611
  -6.600  -0.6911   0.00819   0.00261   0.0126  0.4407  0.0244  -3.6212   0.0000   0.2615
  -6.500  -0.6800   0.00812   0.00255   0.0127  0.4371  0.0254  -3.5350   0.0000   0.2620
  -6.400  -0.6689   0.00807   0.00248   0.0128  0.4335  0.0262  -3.4490   0.0000   0.2625
  -6.300  -0.6578   0.00802   0.00243   0.0128  0.4316  0.0269  -3.3634   0.0000   0.2630
  -6.200  -0.6466   0.00797   0.00238   0.0129  0.4290  0.0274  -3.2785   0.0000   0.2636
  -6.100  -0.6355   0.00790   0.00231   0.0130  0.4260  0.0292  -3.1955   0.0000   0.2641
  -6.000  -0.6244   0.00784   0.00225   0.0130  0.4224  0.0305  -3.1128   0.0000   0.2646
  -5.900  -0.6132   0.00779   0.00219   0.0131  0.4191  0.0315  -3.0305   0.0000   0.2652
  -5.800  -0.6020   0.00775   0.00215   0.0132  0.4171  0.0321  -2.9487   0.0000   0.2658
  -5.700  -0.5908   0.00769   0.00209   0.0132  0.4148  0.0336  -2.8692   0.0000   0.2664
  -5.600  -0.5797   0.00763   0.00203   0.0133  0.4121  0.0353  -2.7960   0.0000   0.2670
  -5.500  -0.5685   0.00759   0.00198   0.0133  0.4090  0.0365  -2.7232   0.0000   0.2676
  -5.400  -0.5572   0.00755   0.00193   0.0134  0.4054  0.0374  -2.6507   0.0000   0.2682
  -5.300  -0.5460   0.00750   0.00188   0.0135  0.4037  0.0392  -2.5792   0.0000   0.2689
  -5.200  -0.5348   0.00743   0.00183   0.0135  0.4017  0.0413  -2.5086   0.0000   0.2696
  -5.100  -0.5236   0.00739   0.00179   0.0136  0.3991  0.0429  -2.4383   0.0000   0.2703
  -5.000  -0.5123   0.00735   0.00174   0.0136  0.3963  0.0445  -2.3686   0.0000   0.2710
  -4.900  -0.5011   0.00730   0.00169   0.0137  0.3930  0.0469  -2.3001   0.0000   0.2718
  -4.800  -0.4898   0.00725   0.00165   0.0137  0.3906  0.0486  -2.2317   0.0000   0.2726
  -4.700  -0.4785   0.00722   0.00161   0.0138  0.3891  0.0498  -2.1664   0.0000   0.2734
  -4.600  -0.4672   0.00716   0.00157   0.0138  0.3872  0.0527  -2.1052   0.0000   0.2742
  -4.500  -0.4560   0.00711   0.00152   0.0138  0.3848  0.0550  -2.0444   0.0000   0.2751
  -4.400  -0.4446   0.00708   0.00149   0.0139  0.3821  0.0567  -1.9839   0.0000   0.2760
  -4.300  -0.4334   0.00703   0.00144   0.0139  0.3789  0.0603  -1.9245   0.0000   0.2770
  -4.200  -0.4221   0.00699   0.00140   0.0140  0.3766  0.0627  -1.8653   0.0000   0.2780
  -4.100  -0.4107   0.00696   0.00137   0.0140  0.3751  0.0643  -1.8064   0.0000   0.2791
  -4.000  -0.3994   0.00690   0.00133   0.0141  0.3734  0.0678  -1.7488   0.0000   0.2802
  -3.900  -0.3881   0.00687   0.00130   0.0141  0.3714  0.0704  -1.6960   0.0000   0.2814
  -3.800  -0.3767   0.00684   0.00127   0.0141  0.3691  0.0726  -1.6435   0.0000   0.2826
  -3.700  -0.3655   0.00679   0.00123   0.0142  0.3664  0.0767  -1.5920   0.0000   0.2839
  -3.500  -0.3427   0.00673   0.00117   0.0142  0.3621  0.0814  -1.4896   0.0000   0.2867
  -3.400  -0.3313   0.00669   0.00114   0.0142  0.3605  0.0851  -1.4398   0.0000   0.2883
  -3.300  -0.3199   0.00665   0.00112   0.0143  0.3587  0.0880  -1.3939   0.0000   0.2899
  -3.200  -0.3085   0.00663   0.00109   0.0143  0.3566  0.0912  -1.3485   0.0000   0.2917
  -3.100  -0.2972   0.00659   0.00106   0.0143  0.3544  0.0952  -1.3036   0.0000   0.2936
  -3.000  -0.2858   0.00657   0.00104   0.0144  0.3518  0.0977  -1.2589   0.0000   0.2957
  -2.900  -0.2744   0.00654   0.00101   0.0144  0.3494  0.1013  -1.2155   0.0000   0.2979
  -2.800  -0.2630   0.00649   0.00099   0.0144  0.3483  0.1058  -1.1753   0.0000   0.3003
  -2.700  -0.2515   0.00647   0.00097   0.0144  0.3469  0.1087  -1.1352   0.0000   0.3029
  -2.600  -0.2402   0.00642   0.00094   0.0145  0.3451  0.1140  -1.0958   0.0000   0.3058
  -2.500  -0.2288   0.00640   0.00092   0.0145  0.3430  0.1176  -1.0565   0.0000   0.3089
  -2.400  -0.2174   0.00637   0.00090   0.0145  0.3407  0.1230  -1.0207   0.0000   0.3123
  -2.300  -0.2060   0.00634   0.00088   0.0145  0.3381  0.1281  -0.9852   0.0000   0.3161
  -2.200  -0.1946   0.00631   0.00086   0.0145  0.3359  0.1335  -0.9500   0.0000   0.3204
  -2.100  -0.1832   0.00627   0.00084   0.0146  0.3350  0.1389  -0.9156   0.0000   0.3252
  -2.000  -0.1718   0.00623   0.00082   0.0146  0.3338  0.1457  -0.8837   0.0000   0.3306
  -1.900  -0.1603   0.00620   0.00080   0.0146  0.3322  0.1515  -0.8519   0.0000   0.3368
  -1.800  -0.1490   0.00616   0.00078   0.0146  0.3303  0.1593  -0.8206   0.0000   0.3439
  -1.700  -0.1376   0.00613   0.00076   0.0146  0.3282  0.1661  -0.7911   0.0000   0.3522
  -1.600  -0.1262   0.00610   0.00074   0.0146  0.3257  0.1746  -0.7626   0.0000   0.3620
  -1.400  -0.1034   0.00602   0.00071   0.0147  0.3220  0.1920  -0.7071   0.0000   0.3879
  -1.300  -0.0920   0.00598   0.00070   0.0147  0.3210  0.2011  -0.6810   0.0000   0.4057
  -1.200  -0.0806   0.00593   0.00068   0.0147  0.3196  0.2121  -0.6553   0.0000   0.4285
  -1.100  -0.0693   0.00589   0.00067   0.0147  0.3180  0.2228  -0.6512   0.0000   0.4588
  -1.000  -0.0579   0.00585   0.00066   0.0147  0.3162  0.2337  -0.6632   0.0000   0.5008
  -0.900  -0.0465   0.00581   0.00064   0.0148  0.3140  0.2455  -0.6754   0.0000   0.5634
  -0.800  -0.0352   0.00578   0.00063   0.0148  0.3114  0.2571  -0.6878   0.0000   0.6664
  -0.700  -0.0238   0.00575   0.00062   0.0148  0.3095  0.2685  -0.7001   0.0000   0.8684
  -0.600  -0.0124   0.00570   0.00061   0.0148  0.3085  0.2812  -0.7126   0.0000   1.4417
  -0.500  -0.0010   0.00565   0.00060   0.0148  0.3072  0.2943  -0.7250   0.0000  14.8969
  -0.400   0.0104   0.00561   0.00060   0.0148  0.3057  0.3070  -0.7375   0.0000  -1.1851
  -0.300   0.0218   0.00558   0.00059   0.0148  0.3041  0.3196  -0.7500   0.0000  -0.4368
  -0.200   0.0331   0.00554   0.00058   0.0148  0.3022  0.3324  -0.7625   0.0000  -0.2027
  -0.100   0.0445   0.00552   0.00058   0.0148  0.3001  0.3445  -0.7751   0.0000  -0.0881
   0.000   0.0559   0.00550   0.00058   0.0149  0.2976  0.3552  -0.7882   0.0000  -0.0200
   0.100   0.0674   0.00547   0.00058   0.0149  0.2964  0.3662  -0.8014   0.0000   0.0251
   0.200   0.0788   0.00543   0.00058   0.0149  0.2953  0.3782  -0.8147   0.0000   0.0570
   0.300   0.0903   0.00540   0.00058   0.0149  0.2940  0.3898  -0.8280   0.0000   0.0809
   0.400   0.1017   0.00538   0.00058   0.0149  0.2923  0.3998  -0.8413   0.0000   0.0994
   0.500   0.1132   0.00537   0.00058   0.0149  0.2904  0.4086  -0.8547   0.0000   0.1143
   0.600   0.1246   0.00536   0.00058   0.0149  0.2884  0.4197  -0.8681   0.0000   0.1263
   0.700   0.1360   0.00534   0.00059   0.0149  0.2862  0.4309  -0.8815   0.0000   0.1363
   0.800   0.1475   0.00532   0.00059   0.0149  0.2843  0.4412  -0.8950   0.0000   0.1448
   1.000   0.1705   0.00528   0.00060   0.0149  0.2825  0.4606  -0.9226   0.0000   0.1584
   1.100   0.1820   0.00526   0.00060   0.0149  0.2811  0.4711  -0.9368   0.0000   0.1638
   1.200   0.1934   0.00525   0.00061   0.0149  0.2795  0.4815  -0.9510   0.0000   0.1687
   1.300   0.2049   0.00524   0.00062   0.0149  0.2777  0.4923  -0.9653   0.0000   0.1730
   1.400   0.2163   0.00523   0.00063   0.0149  0.2756  0.5040  -0.9796   0.0000   0.1768
   1.500   0.2277   0.00521   0.00064   0.0149  0.2731  0.5153  -0.9939   0.0000   0.1802
   1.600   0.2392   0.00519   0.00065   0.0149  0.2718  0.5274  -1.0082   0.0000   0.1833
   1.700   0.2506   0.00517   0.00066   0.0149  0.2709  0.5399  -1.0227   0.0000   0.1861
   1.800   0.2621   0.00515   0.00067   0.0149  0.2699  0.5530  -1.0371   0.0000   0.1887
   1.900   0.2735   0.00512   0.00067   0.0149  0.2686  0.5672  -1.0516   0.0000   0.1910
   2.000   0.2848   0.00510   0.00069   0.0149  0.2672  0.5827  -1.0662   0.0000   0.1931
   2.100   0.2962   0.00507   0.00070   0.0149  0.2656  0.6004  -1.0813   0.0000   0.1951
   2.200   0.3074   0.00503   0.00071   0.0149  0.2637  0.6211  -1.0963   0.0000   0.1968
   2.300   0.3186   0.00499   0.00073   0.0149  0.2614  0.6448  -1.1114   0.0000   0.1984
   2.400   0.3298   0.00494   0.00074   0.0150  0.2598  0.6707  -1.1265   0.0000   0.1998
   2.500   0.3410   0.00489   0.00076   0.0150  0.2582  0.6959  -1.1416   0.0000   0.2012
   2.600   0.3521   0.00485   0.00077   0.0151  0.2548  0.7203  -1.1568   0.0000   0.2024
   2.700   0.3631   0.00484   0.00080   0.0151  0.2495  0.7429  -1.1719   0.0000   0.2035
   2.800   0.3743   0.00480   0.00082   0.0152  0.2469  0.7635  -1.1871   0.0000   0.2045
   2.900   0.3855   0.00478   0.00084   0.0152  0.2449  0.7821  -1.2025   0.0000   0.2055
   3.000   0.3966   0.00476   0.00086   0.0153  0.2425  0.8005  -1.2178   0.0000   0.2064
   3.100   0.4076   0.00474   0.00089   0.0154  0.2399  0.8184  -1.2330   0.0000   0.2072
   3.200   0.4188   0.00475   0.00091   0.0154  0.2368  0.8317  -1.2490   0.0000   0.2080
   3.300   0.4297   0.00471   0.00093   0.0156  0.2357  0.8497  -1.2650   0.0000   0.2086
   3.400   0.4409   0.00471   0.00096   0.0156  0.2340  0.8606  -1.2812   0.0000   0.2093
   3.500   0.4516   0.00469   0.00098   0.0158  0.2317  0.8776  -1.2970   0.0000   0.2097
   3.600   0.4626   0.00471   0.00101   0.0159  0.2287  0.8883  -1.3131   0.0000   0.2103
   3.700   0.4733   0.00472   0.00105   0.0161  0.2254  0.9011  -1.3291   0.0000   0.2106
   3.800   0.4839   0.00471   0.00108   0.0163  0.2232  0.9145  -1.3450   0.0000   0.2109
   3.900   0.4950   0.00475   0.00111   0.0164  0.2183  0.9222  -1.3613   0.0000   0.2114
   4.000   0.5060   0.00479   0.00115   0.0164  0.2137  0.9314  -1.3776   0.0000   0.2119
   4.100   0.5167   0.00482   0.00120   0.0166  0.2091  0.9438  -1.3936   0.0000   0.2121
   4.200   0.5276   0.00488   0.00124   0.0168  0.2028  0.9526  -1.4098   0.0000   0.2125
   4.300   0.5387   0.00495   0.00129   0.0168  0.1975  0.9579  -1.4264   0.0000   0.2130
   4.400   0.5500   0.00502   0.00134   0.0168  0.1915  0.9610  -1.4435   0.0000   0.2136
   4.500   0.5626   0.00513   0.00141   0.0165  0.1817  0.9686  -1.4621   0.0000   0.2148
   4.600   0.5755   0.00527   0.00150   0.0161  0.1685  0.9746  -1.5184   0.0000   0.2161
   4.700   0.5879   0.00550   0.00163   0.0157  0.1483  0.9794  -1.6093   0.0000   0.2173
   4.800   0.5961   0.00689   0.00247   0.0155  0.0139  0.9844  -1.6705   0.0000   0.2179
   4.900   0.6084   0.00703   0.00257   0.0153  0.0048  0.9869  -1.7586   0.0000   0.2188
   5.000   0.6207   0.00712   0.00264   0.0151  0.0028  0.9888  -1.8259   0.0000   0.2196
   5.100   0.6330   0.00718   0.00270   0.0148  0.0027  0.9902  -1.9157   0.0000   0.2203
   5.200   0.6453   0.00725   0.00277   0.0146  0.0026  0.9915  -2.0055   0.0000   0.2210
   5.300   0.6575   0.00732   0.00283   0.0144  0.0025  0.9926  -2.0965   0.0000   0.2216
   5.400   0.6696   0.00738   0.00290   0.0143  0.0025  0.9935  -2.1887   0.0000   0.2222
   5.500   0.6817   0.00746   0.00297   0.0141  0.0024  0.9943  -2.2824   0.0000   0.2228
   5.600   0.6938   0.00753   0.00304   0.0139  0.0024  0.9950  -2.3771   0.0000   0.2233
   5.700   0.7059   0.00760   0.00311   0.0137  0.0023  0.9957  -2.4729   0.0000   0.2238
   5.800   0.7179   0.00768   0.00319   0.0136  0.0023  0.9962  -2.5698   0.0000   0.2243
   5.900   0.7300   0.00776   0.00327   0.0134  0.0023  0.9967  -2.6677   0.0000   0.2248
   6.000   0.7420   0.00784   0.00335   0.0132  0.0023  0.9971  -2.7666   0.0000   0.2252
   6.100   0.7540   0.00793   0.00344   0.0130  0.0023  0.9975  -2.8664   0.0000   0.2257
   6.200   0.7660   0.00802   0.00353   0.0129  0.0023  0.9978  -2.9672   0.0000   0.2261
   6.300   0.7780   0.00811   0.00362   0.0127  0.0023  0.9981  -3.0685   0.0000   0.2264
   6.400   0.7900   0.00820   0.00372   0.0125  0.0023  0.9983  -3.1708   0.0000   0.2268
   6.500   0.8020   0.00830   0.00382   0.0124  0.0022  0.9986  -3.2740   0.0000   0.2272
   6.600   0.8141   0.00840   0.00393   0.0122  0.0022  0.9988  -3.3783   0.0000   0.2276
   6.700   0.8262   0.00851   0.00404   0.0120  0.0022  0.9990  -3.4835   0.0000   0.2279
   6.800   0.8384   0.00862   0.00416   0.0117  0.0022  0.9992  -3.5897   0.0000   0.2283
   6.900   0.8507   0.00873   0.00428   0.0115  0.0022  0.9993  -3.6966   0.0000   0.2287
   7.000   0.8629   0.00886   0.00441   0.0112  0.0023  0.9995  -3.8042   0.0000   0.2291
   7.100   0.8752   0.00898   0.00455   0.0110  0.0023  0.9996  -3.9124   0.0000   0.2295
   7.200   0.8874   0.00912   0.00469   0.0107  0.0023  0.9997  -4.0209   0.0000   0.2298
   7.300   0.8996   0.00926   0.00484   0.0105  0.0023  0.9998  -4.1294   0.0000   0.2302
   7.400   0.9117   0.00940   0.00500   0.0102  0.0023  0.9999  -4.2379   0.0000   0.2305
   7.500   0.9237   0.00956   0.00517   0.0100  0.0023  1.0000  -4.3462   0.0000   0.2308
   7.600   0.9336   0.00971   0.00534   0.0102  0.0023  1.0000  -4.4450   0.0000   0.2305
   7.700   0.9434   0.00987   0.00552   0.0105  0.0023  1.0000  -4.5431   0.0000   0.2303
   7.800   0.9531   0.01004   0.00570   0.0107  0.0023  1.0000  -4.6409   0.0000   0.2300
   7.900   0.9627   0.01022   0.00590   0.0110  0.0023  1.0000  -4.7384   0.0000   0.2298
   8.000   0.9723   0.01041   0.00611   0.0113  0.0023  1.0000  -4.8350   0.0000   0.2295
   8.100   0.9817   0.01060   0.00632   0.0115  0.0023  1.0000  -4.9309   0.0000   0.2292
   8.200   0.9911   0.01081   0.00655   0.0118  0.0024  1.0000  -5.0261   0.0000   0.2289
   8.300   1.0003   0.01103   0.00679   0.0121  0.0024  1.0000  -5.1204   0.0000   0.2286
   8.400   1.0094   0.01126   0.00705   0.0124  0.0024  1.0000  -5.2136   0.0000   0.2283
   8.500   1.0184   0.01151   0.00732   0.0127  0.0024  1.0000  -5.3057   0.0000   0.2280
   8.600   1.0271   0.01177   0.00760   0.0131  0.0024  1.0000  -5.3993   0.0000   0.2276
   8.700   1.0358   0.01204   0.00790   0.0134  0.0024  1.0000  -5.4919   0.0000   0.2273
   8.800   1.0442   0.01233   0.00822   0.0138  0.0024  1.0000  -5.5827   0.0000   0.2269
   9.000   1.0603   0.01297   0.00891   0.0146  0.0025  1.0000  -5.7580   0.0000   0.2261
   9.100   1.0679   0.01331   0.00929   0.0151  0.0025  1.0000  -5.8419   0.0000   0.2257
   9.200   1.0753   0.01368   0.00969   0.0155  0.0025  1.0000  -5.9225   0.0000   0.2252
   9.300   1.0822   0.01407   0.01011   0.0160  0.0025  1.0000  -5.9995   0.0000   0.2247
   9.400   1.0891   0.01445   0.01052   0.0166  0.0026  1.0000  -6.0811   0.0000   0.2242
   9.500   1.0960   0.01481   0.01090   0.0171  0.0026  1.0000  -6.1693   0.0000   0.2237
   9.600   1.1028   0.01515   0.01127   0.0176  0.0026  1.0000  -6.2602   0.0000   0.2231
   9.700   1.1094   0.01550   0.01164   0.0182  0.0026  1.0000  -6.3518   0.0000   0.2226
   9.800   1.1157   0.01586   0.01202   0.0188  0.0026  1.0000  -6.4422   0.0000   0.2220
   9.900   1.1217   0.01623   0.01242   0.0194  0.0026  1.0000  -6.5294   0.0000   0.2215
  10.000   1.1273   0.01664   0.01286   0.0200  0.0026  1.0000  -6.6103   0.0000   0.2208
  10.100   1.1320   0.01712   0.01336   0.0207  0.0026  1.0000  -6.6776   0.0000   0.2202
  10.200   1.1357   0.01766   0.01394   0.0215  0.0026  1.0000  -6.7316   0.0000   0.2194
  10.300   1.1388   0.01825   0.01457   0.0223  0.0026  1.0000  -6.7777   0.0000   0.2186
  10.400   1.1413   0.01892   0.01527   0.0230  0.0027  1.0000  -6.8125   0.0000   0.2179
  10.500   1.1427   0.01978   0.01618   0.0237  0.0027  1.0000  -6.8206   0.0000   0.2172
  11.200   1.1077   0.02750   0.02414   0.0337  0.0029  1.0000  -6.5758   0.0000   0.2065
  11.300   1.1086   0.02828   0.02495   0.0338  0.0029  1.0000  -6.6314   0.0000   0.2063
  11.400   1.1098   0.02910   0.02580   0.0337  0.0029  1.0000  -6.6874   0.0000   0.2063
  11.500   1.1111   0.02994   0.02667   0.0335  0.0029  1.0000  -6.7439   0.0000   0.2063
  11.600   1.1125   0.03079   0.02755   0.0334  0.0029  1.0000  -6.8009   0.0000   0.2063
  11.700   1.1139   0.03166   0.02845   0.0332  0.0029  1.0000  -6.8577   0.0000   0.2063
  11.800   1.1153   0.03256   0.02937   0.0331  0.0029  1.0000  -6.9139   0.0000   0.2063
  11.900   1.1165   0.03346   0.03031   0.0329  0.0029  1.0000  -6.9690   0.0000   0.2063
  12.000   1.1175   0.03439   0.03127   0.0328  0.0029  1.0000  -7.0229   0.0000   0.2063
  12.100   1.1183   0.03534   0.03224   0.0326  0.0029  1.0000  -7.0753   0.0000   0.2063
  12.200   1.1190   0.03630   0.03324   0.0324  0.0029  1.0000  -7.1262   0.0000   0.2064
  12.300   1.1194   0.03728   0.03424   0.0322  0.0029  1.0000  -7.1750   0.0000   0.2063
  12.400   1.1196   0.03827   0.03527   0.0321  0.0029  1.0000  -7.2220   0.0000   0.2063
  12.500   1.1195   0.03930   0.03633   0.0318  0.0029  1.0000  -7.2670   0.0000   0.2064
  12.600   1.1193   0.04035   0.03741   0.0316  0.0029  1.0000  -7.3107   0.0000   0.2064
  12.700   1.1190   0.04143   0.03852   0.0313  0.0029  1.0000  -7.3526   0.0000   0.2064
  12.800   1.1183   0.04254   0.03967   0.0311  0.0029  1.0000  -7.3922   0.0000   0.2065
  12.900   1.1176   0.04367   0.04083   0.0307  0.0029  1.0000  -7.4306   0.0000   0.2066
  13.000   1.1166   0.04483   0.04202   0.0304  0.0029  1.0000  -7.4668   0.0000   0.2067
  13.100   1.1153   0.04601   0.04323   0.0301  0.0029  1.0000  -7.5005   0.0000   0.2068
  13.200   1.1140   0.04721   0.04446   0.0297  0.0029  1.0000  -7.5331   0.0000   0.2069
  13.300   1.1123   0.04846   0.04575   0.0293  0.0029  1.0000  -7.5626   0.0000   0.2071
  13.400   1.1106   0.04973   0.04705   0.0289  0.0029  1.0000  -7.5917   0.0000   0.2072
  13.500   1.1086   0.05104   0.04839   0.0284  0.0029  1.0000  -7.6176   0.0000   0.2074
  13.600   1.1065   0.05237   0.04976   0.0279  0.0029  1.0000  -7.6427   0.0000   0.2076
  13.700   1.1042   0.05374   0.05116   0.0273  0.0029  1.0000  -7.6651   0.0000   0.2079
  13.800   1.1016   0.05513   0.05258   0.0268  0.0029  1.0000  -7.6853   0.0000   0.2081
  13.900   1.0990   0.05655   0.05403   0.0262  0.0029  1.0000  -7.7039   0.0000   0.2084
  14.000   1.0960   0.05802   0.05554   0.0256  0.0029  1.0000  -7.7198   0.0000   0.2087
  14.100   1.0931   0.05950   0.05706   0.0250  0.0029  1.0000  -7.7354   0.0000   0.2091
  14.200   1.0899   0.06105   0.05864   0.0243  0.0029  1.0000  -7.7471   0.0000   0.2094
  14.300   1.0867   0.06260   0.06022   0.0236  0.0029  1.0000  -7.7592   0.0000   0.2098
  14.400   1.0831   0.06421   0.06187   0.0228  0.0029  1.0000  -7.7665   0.0000   0.2103
  14.500   1.0797   0.06583   0.06352   0.0221  0.0029  1.0000  -7.7755   0.0000   0.2107
  14.600   1.0761   0.06756   0.06528   0.0212  0.0029  1.0000  -7.7804   0.0000   0.2113
  14.700   1.0727   0.06928   0.06704   0.0204  0.0029  1.0000  -7.7873   0.0000   0.2118
  14.800   1.0689   0.07110   0.06890   0.0194  0.0029  1.0000  -7.7891   0.0000   0.2124
  14.900   1.0654   0.07291   0.07074   0.0185  0.0029  1.0000  -7.7929   0.0000   0.2131
  15.000   1.0615   0.07481   0.07267   0.0175  0.0029  1.0000  -7.7912   0.0000   0.2138
  15.100   1.0577   0.07668   0.07458   0.0165  0.0029  1.0000  -7.7912   0.0000   0.2144
  15.200   1.0536   0.07866   0.07659   0.0154  0.0029  1.0000  -7.7861   0.0000   0.2152
  15.300   1.0497   0.08062   0.07858   0.0144  0.0029  1.0000  -7.7826   0.0000   0.2160
  15.400   1.0454   0.08268   0.08067   0.0133  0.0029  1.0000  -7.7744   0.0000   0.2168
  15.500   1.0414   0.08472   0.08275   0.0121  0.0029  1.0000  -7.7674   0.0000   0.2176
  15.600   1.0370   0.08684   0.08491   0.0110  0.0029  1.0000  -7.7562   0.0000   0.2185
  15.700   1.0328   0.08895   0.08705   0.0098  0.0029  1.0000  -7.7453   0.0000   0.2195
  15.800   1.0284   0.09112   0.08926   0.0086  0.0029  1.0000  -7.7310   0.0000   0.2204
  15.900   1.0240   0.09331   0.09148   0.0074  0.0029  1.0000  -7.7162   0.0000   0.2214
  16.000   1.0196   0.09554   0.09374   0.0061  0.0029  1.0000  -7.6994   0.0000   0.2225
  16.100   1.0151   0.09780   0.09603   0.0048  0.0029  1.0000  -7.6809   0.0000   0.2235
  16.200   1.0107   0.10007   0.09834   0.0035  0.0029  1.0000  -7.6615   0.0000   0.2247
  16.300   1.0061   0.10239   0.10069   0.0021  0.0029  1.0000  -7.6390   0.0000   0.2258
  16.400   1.0017   0.10470   0.10303   0.0008  0.0029  1.0000  -7.6165   0.0000   0.2270
  16.500   0.9970   0.10707   0.10544  -0.0006  0.0029  1.0000  -7.5900   0.0000   0.2282
  16.600   0.9926   0.10942   0.10782  -0.0020  0.0029  1.0000  -7.5644   0.0000   0.2295
  16.700   0.9879   0.11185   0.11028  -0.0035  0.0029  1.0000  -7.5343   0.0000   0.2308
  16.800   0.9835   0.11425   0.11271  -0.0049  0.0029  1.0000  -7.5052   0.0000   0.2322
  16.900   0.9788   0.11672   0.11522  -0.0065  0.0029  1.0000  -7.4712   0.0000   0.2336
  17.000   0.9744   0.11916   0.11769  -0.0080  0.0029  1.0000  -7.4378   0.0000   0.2350
  17.100   0.9697   0.12167   0.12023  -0.0095  0.0029  1.0000  -7.3996   0.0000   0.2365
  17.200   0.9651   0.12417   0.12276  -0.0111  0.0029  1.0000  -7.3613   0.0000   0.2381
  17.300   0.9605   0.12671   0.12533  -0.0127  0.0029  1.0000  -7.3194   0.0000   0.2397
  17.400   0.9559   0.12928   0.12794  -0.0143  0.0029  1.0000  -7.2752   0.0000   0.2413
  17.500   0.9514   0.13186   0.13054  -0.0159  0.0029  1.0000  -7.2296   0.0000   0.2430
  17.600   0.9466   0.13450   0.13322  -0.0176  0.0029  1.0000  -7.1783   0.0000   0.2447
  17.700   0.9422   0.13709   0.13583  -0.0192  0.0029  1.0000  -7.1285   0.0000   0.2465
  17.800   0.9372   0.13983   0.13860  -0.0210  0.0029  1.0000  -7.0690   0.0000   0.2484
  17.900   0.9328   0.14247   0.14127  -0.0227  0.0029  1.0000  -7.0131   0.0000   0.2502
  18.000   0.9278   0.14527   0.14411  -0.0245  0.0029  1.0000  -6.9461   0.0000   0.2522
  18.100   0.9231   0.14805   0.14692  -0.0263  0.0029  1.0000  -6.8784   0.0000   0.2542
  18.200   0.9184   0.15086   0.14975  -0.0281  0.0029  1.0000  -6.8072   0.0000   0.2563
  18.300   0.9133   0.15381   0.15273  -0.0301  0.0029  1.0000  -6.7246   0.0000   0.2585
  18.400   0.9084   0.15673   0.15568  -0.0319  0.0029  1.0000  -6.6404   0.0000   0.2608
  18.500   0.9034   0.15972   0.15870  -0.0338  0.0029  1.0000  -6.5489   0.0000   0.2630
  18.600   0.8979   0.16291   0.16192  -0.0359  0.0029  1.0000  -6.4420   0.0000   0.2656
  18.700   0.8924   0.16617   0.16521  -0.0380  0.0029  1.0000  -6.3244   0.0000   0.2682
  18.800   0.8866   0.16958   0.16865  -0.0401  0.0029  1.0000  -6.1913   0.0000   0.2709
  18.900   0.8803   0.17326   0.17236  -0.0424  0.0029  1.0000  -6.0336   0.0000   0.2739
  19.000   0.8732   0.17728   0.17641  -0.0448  0.0029  1.0000  -5.8378   0.0000   0.2772
  19.100   0.8639   0.18226   0.18142  -0.0477  0.0029  1.0000  -5.5460   0.0000   0.2813


