xflr5 v6.47

 Calculated polar for: 763ER

 1 1 Reynolds number fixed          Mach number fixed         

 xtrf =   1.000 (top)        1.000 (bottom)
 Mach =   0.000     Re =     1.000 e 6     Ncrit =   9.000

  alpha     CL        CD       CDp       Cm    Top Xtr Bot Xtr   Cpmin    Chinge    XCp    
 ------- -------- --------- --------- -------- ------- ------- -------- --------- ---------
 -25.000  -0.8421   0.26099   0.25921   0.0886  1.0000  0.0036  -2.1210   0.0000   0.3322
 -24.900  -0.8395   0.26018   0.25841   0.0879  1.0000  0.0037  -2.1020   0.0000   0.3320
 -24.800  -0.8369   0.25937   0.25759   0.0873  1.0000  0.0037  -2.0850   0.0000   0.3317
 -24.700  -0.8445   0.34755   0.34641   0.1518  1.0000  0.0033  -1.7262   0.0000   0.4110
 -24.600  -0.8424   0.34534   0.34420   0.1510  1.0000  0.0033  -1.7384   0.0000   0.4105
 -24.500  -0.8403   0.34320   0.34205   0.1501  1.0000  0.0033  -1.7480   0.0000   0.4101
 -24.400  -0.8381   0.34119   0.34005   0.1494  1.0000  0.0033  -1.7174   0.0000   0.4099
 -24.300  -0.8358   0.33947   0.33832   0.1486  1.0000  0.0034  -1.6871   0.0000   0.4097
 -24.200  -0.8335   0.33776   0.33661   0.1478  1.0000  0.0034  -1.6597   0.0000   0.4094
 -24.100  -0.8312   0.33605   0.33489   0.1469  1.0000  0.0034  -1.6338   0.0000   0.4091
 -24.000  -0.8289   0.33433   0.33318   0.1461  1.0000  0.0034  -1.6093   0.0000   0.4088
 -23.900  -0.8266   0.33261   0.33145   0.1453  1.0000  0.0035  -1.5864   0.0000   0.4084
 -23.800  -0.8243   0.33087   0.32971   0.1444  1.0000  0.0035  -1.5652   0.0000   0.4081
 -23.700  -0.8219   0.32911   0.32795   0.1436  1.0000  0.0036  -1.5457   0.0000   0.4077
 -23.600  -0.8196   0.32734   0.32617   0.1427  1.0000  0.0036  -1.5281   0.0000   0.4073
 -23.500  -0.8172   0.32554   0.32437   0.1418  1.0000  0.0037  -1.5124   0.0000   0.4069
 -23.400  -0.8148   0.32372   0.32255   0.1410  1.0000  0.0037  -1.4986   0.0000   0.4065
 -23.300  -0.8124   0.32188   0.32070   0.1401  1.0000  0.0038  -1.4869   0.0000   0.4061
 -23.200  -0.8099   0.32002   0.31884   0.1392  1.0000  0.0039  -1.4771   0.0000   0.4057
 -23.100  -0.8075   0.31813   0.31695   0.1383  1.0000  0.0040  -1.4693   0.0000   0.4053
 -23.000  -0.8051   0.31623   0.31504   0.1374  1.0000  0.0040  -1.4634   0.0000   0.4048
 -22.900  -0.8026   0.31430   0.31311   0.1365  1.0000  0.0041  -1.4594   0.0000   0.4043
 -22.800  -0.8002   0.31234   0.31115   0.1356  1.0000  0.0042  -1.4576   0.0000   0.4038
 -22.700  -0.7977   0.31036   0.30917   0.1347  1.0000  0.0043  -1.4582   0.0000   0.4033
 -22.600  -0.7952   0.30835   0.30715   0.1338  1.0000  0.0044  -1.4625   0.0000   0.4028
 -22.500  -0.7927   0.30623   0.30503   0.1328  1.0000  0.0046  -1.4748   0.0000   0.4023
 -22.400  -0.7902   0.30378   0.30258   0.1318  1.0000  0.0047  -1.5148   0.0000   0.4016
 -22.300  -0.7879   0.30123   0.30003   0.1308  1.0000  0.0048  -1.5644   0.0000   0.4007
 -22.200  -0.7856   0.29884   0.29763   0.1297  1.0000  0.0049  -1.6019   0.0000   0.3999
 -22.100  -0.7834   0.29651   0.29531   0.1287  1.0000  0.0049  -1.6340   0.0000   0.3991
 -22.000  -0.7811   0.29422   0.29302   0.1276  1.0000  0.0049  -1.6636   0.0000   0.3983
 -21.900  -0.7789   0.29195   0.29075   0.1265  1.0000  0.0049  -1.6921   0.0000   0.3974
 -21.800  -0.7765   0.28975   0.28854   0.1255  1.0000  0.0049  -1.7261   0.0000   0.3966
 -21.700  -0.7741   0.28759   0.28638   0.1244  1.0000  0.0049  -1.7604   0.0000   0.3959
 -21.600  -0.7717   0.28550   0.28429   0.1234  1.0000  0.0049  -1.7891   0.0000   0.3952
 -21.500  -0.7692   0.28342   0.28221   0.1224  1.0000  0.0049  -1.8189   0.0000   0.3944
 -21.400  -0.7667   0.28133   0.28011   0.1214  1.0000  0.0049  -1.8504   0.0000   0.3937
 -21.300  -0.7642   0.27922   0.27800   0.1204  1.0000  0.0049  -1.8843   0.0000   0.3929
 -21.200  -0.7622   0.27669   0.27547   0.1192  1.0000  0.0050  -1.9434   0.0000   0.3920
 -21.100  -0.7591   0.27535   0.27413   0.1184  1.0000  0.0050  -1.8987   0.0000   0.3918
 -21.000  -0.7437   0.21730   0.21558   0.0626  1.0000  0.0070  -2.9392   0.0000   0.3157
 -20.900  -0.7401   0.21679   0.21507   0.0621  1.0000  0.0071  -2.8565   0.0000   0.3157
 -20.800  -0.7365   0.21626   0.21453   0.0617  1.0000  0.0072  -2.7804   0.0000   0.3157
 -20.700  -0.7331   0.21567   0.21395   0.0612  1.0000  0.0072  -2.7132   0.0000   0.3156
 -20.600  -0.7297   0.21503   0.21330   0.0606  1.0000  0.0073  -2.6535   0.0000   0.3155
 -20.500  -0.7265   0.21434   0.21262   0.0601  1.0000  0.0074  -2.6007   0.0000   0.3153
 -20.400  -0.7233   0.21361   0.21188   0.0596  1.0000  0.0075  -2.5549   0.0000   0.3151
 -20.300  -0.7201   0.21281   0.21108   0.0590  1.0000  0.0077  -2.5167   0.0000   0.3148
 -20.200  -0.7171   0.21195   0.21022   0.0584  1.0000  0.0079  -2.4871   0.0000   0.3145
 -20.100  -0.7179   0.20885   0.20714   0.0570  1.0000  0.0092  -2.7607   0.0000   0.3121
 -20.000  -0.7163   0.20729   0.20558   0.0562  1.0000  0.0093  -2.8239   0.0000   0.3112
 -19.900  -0.7142   0.20591   0.20419   0.0555  1.0000  0.0093  -2.8597   0.0000   0.3105
 -19.800  -0.7122   0.20451   0.20280   0.0548  1.0000  0.0093  -2.8933   0.0000   0.3097
 -19.700  -0.7214   0.24955   0.24829   0.1037  1.0000  0.0072  -2.1342   0.0000   0.3808
 -19.600  -0.7180   0.24845   0.24718   0.1029  1.0000  0.0073  -2.0810   0.0000   0.3805
 -19.500  -0.7146   0.24725   0.24599   0.1020  1.0000  0.0074  -2.0352   0.0000   0.3801
 -19.400  -0.7113   0.24600   0.24473   0.1011  1.0000  0.0075  -1.9974   0.0000   0.3796
 -19.300  -0.7080   0.24466   0.24338   0.1001  1.0000  0.0077  -1.9681   0.0000   0.3790
 -19.200  -0.7048   0.24320   0.24192   0.0991  1.0000  0.0080  -1.9494   0.0000   0.3784
 -19.100  -0.7019   0.24148   0.24020   0.0980  1.0000  0.0086  -1.9559   0.0000   0.3774
 -19.000  -0.7038   0.23613   0.23485   0.0951  1.0000  0.0093  -2.3229   0.0000   0.3724
 -18.900  -0.7016   0.23400   0.23271   0.0937  1.0000  0.0093  -2.3670   0.0000   0.3709
 -18.800  -0.6982   0.23258   0.23129   0.0929  1.0000  0.0095  -2.3092   0.0000   0.3705
 -18.700  -0.6941   0.23173   0.23044   0.0921  1.0000  0.0096  -2.2331   0.0000   0.3704
 -18.600  -0.6902   0.23078   0.22948   0.0913  1.0000  0.0097  -2.1689   0.0000   0.3702
 -18.500  -0.6865   0.22973   0.22843   0.0904  1.0000  0.0098  -2.1148   0.0000   0.3698
 -18.400  -0.6829   0.22859   0.22728   0.0895  1.0000  0.0100  -2.0700   0.0000   0.3692
 -18.300  -0.6795   0.22735   0.22604   0.0885  1.0000  0.0102  -2.0344   0.0000   0.3685
 -18.200  -0.6761   0.22601   0.22470   0.0874  1.0000  0.0104  -2.0081   0.0000   0.3677
 -18.100  -0.6729   0.22457   0.22325   0.0863  1.0000  0.0107  -1.9912   0.0000   0.3667
 -18.000  -0.6699   0.22295   0.22162   0.0851  1.0000  0.0112  -1.9916   0.0000   0.3655
 -17.900  -0.6734   0.21781   0.21648   0.0816  1.0000  0.0121  -2.3332   0.0000   0.3591
 -17.800  -0.8803   0.12586   0.12397   0.0153  1.0000  0.0110  -8.3864   0.0000   0.2460
 -17.700  -0.8981   0.12064   0.11868   0.0121  1.0000  0.0109  -8.7177   0.0000   0.2420
 -17.600  -0.9127   0.11611   0.11410   0.0093  1.0000  0.0108  -8.9754   0.0000   0.2387
 -17.500  -0.9257   0.11199   0.10993   0.0067  1.0000  0.0108  -9.1911   0.0000   0.2358
 -17.400  -0.9379   0.10807   0.10596   0.0043  1.0000  0.0107  -9.3834   0.0000   0.2332
 -17.300  -0.9506   0.10410   0.10195   0.0018  1.0000  0.0107  -9.5781   0.0000   0.2306
 -17.200  -0.9639   0.10008   0.09788  -0.0007  1.0000  0.0106  -9.7753   0.0000   0.2281
 -17.100  -0.9777   0.09602   0.09376  -0.0032  1.0000  0.0106  -9.9745   0.0000   0.2257
 -17.000  -0.9923   0.09191   0.08960  -0.0057  1.0000  0.0105  -10.1785   0.0000   0.2233
 -16.900  -1.0078   0.08776   0.08540  -0.0082  1.0000  0.0104  -10.3895   0.0000   0.2210
 -16.800  -1.0240   0.08356   0.08114  -0.0108  1.0000  0.0104  -10.6040   0.0000   0.2187
 -16.700  -1.0408   0.07930   0.07682  -0.0133  1.0000  0.0103  -10.8231   0.0000   0.2166
 -16.600  -1.0576   0.07512   0.07258  -0.0158  1.0000  0.0102  -11.0343   0.0000   0.2146
 -16.500  -1.0741   0.07101   0.06840  -0.0183  1.0000  0.0102  -11.2372   0.0000   0.2127
 -16.400  -1.0898   0.06709   0.06441  -0.0206  1.0000  0.0101  -11.4217   0.0000   0.2109
 -16.300  -1.1046   0.06336   0.06061  -0.0228  1.0000  0.0101  -11.5872   0.0000   0.2093
 -16.200  -1.1183   0.05986   0.05705  -0.0249  1.0000  0.0100  -11.7316   0.0000   0.2079
 -16.100  -1.1308   0.05660   0.05372  -0.0269  1.0000  0.0100  -11.8546   0.0000   0.2066
 -16.000  -1.1423   0.05357   0.05062  -0.0286  1.0000  0.0100  -11.9578   0.0000   0.2055
 -15.900  -1.1529   0.05075   0.04774  -0.0303  1.0000  0.0100  -12.0434   0.0000   0.2045
 -15.800  -1.1626   0.04816   0.04509  -0.0317  1.0000  0.0100  -12.1131   0.0000   0.2037
 -15.700  -1.1717   0.04577   0.04263  -0.0330  1.0000  0.0100  -12.1697   0.0000   0.2030
 -15.600  -1.1803   0.04357   0.04038  -0.0341  1.0000  0.0100  -12.2138   0.0000   0.2025
 -15.500  -1.1884   0.04156   0.03831  -0.0350  1.0000  0.0100  -12.2471   0.0000   0.2022
 -15.400  -1.1960   0.03974   0.03644  -0.0356  1.0000  0.0100  -12.2702   0.0000   0.2021
 -15.300  -1.2033   0.03812   0.03476  -0.0360  1.0000  0.0100  -12.2836   0.0000   0.2021
 -15.200  -1.2101   0.03667   0.03326  -0.0361  1.0000  0.0100  -12.2876   0.0000   0.2024
 -15.100  -1.2165   0.03538   0.03193  -0.0360  1.0000  0.0100  -12.2826   0.0000   0.2029
 -15.000  -1.2224   0.03424   0.03074  -0.0356  1.0000  0.0101  -12.2690   0.0000   0.2035
 -14.900  -1.2278   0.03322   0.02967  -0.0351  1.0000  0.0101  -12.2469   0.0000   0.2042
 -14.800  -1.2326   0.03231   0.02872  -0.0345  1.0000  0.0101  -12.2161   0.0000   0.2051
 -14.700  -1.2369   0.03149   0.02786  -0.0336  1.0000  0.0102  -12.1773   0.0000   0.2060
 -14.600  -1.2407   0.03076   0.02709  -0.0327  1.0000  0.0102  -12.1313   0.0000   0.2070
 -14.500  -1.2439   0.03010   0.02639  -0.0317  1.0000  0.0103  -12.0777   0.0000   0.2081
 -14.400  -1.2466   0.02951   0.02577  -0.0306  1.0000  0.0103  -12.0172   0.0000   0.2092
 -14.300  -1.2490   0.02897   0.02519  -0.0294  1.0000  0.0104  -11.9530   0.0000   0.2103
 -14.200  -1.2508   0.02848   0.02466  -0.0281  1.0000  0.0104  -11.8814   0.0000   0.2115
 -14.100  -1.2526   0.02801   0.02416  -0.0268  1.0000  0.0105  -11.8086   0.0000   0.2128
 -14.000  -1.2537   0.02759   0.02370  -0.0254  1.0000  0.0106  -11.7284   0.0000   0.2140
 -13.900  -1.2549   0.02719   0.02328  -0.0240  1.0000  0.0106  -11.6492   0.0000   0.2154
 -13.800  -1.2554   0.02683   0.02287  -0.0225  1.0000  0.0107  -11.5620   0.0000   0.2167
 -13.700  -1.2555   0.02649   0.02250  -0.0210  1.0000  0.0108  -11.4714   0.0000   0.2180
 -13.600  -1.2561   0.02617   0.02216  -0.0194  1.0000  0.0109  -11.3847   0.0000   0.2195
 -13.500  -1.2570   0.02588   0.02183  -0.0177  1.0000  0.0110  -11.3008   0.0000   0.2210
 -13.400  -1.2563   0.02558   0.02150  -0.0162  1.0000  0.0111  -11.2028   0.0000   0.2223
 -13.300  -1.2529   0.02526   0.02115  -0.0152  1.0000  0.0112  -11.0806   0.0000   0.2232
 -13.200  -1.2488   0.02495   0.02081  -0.0143  1.0000  0.0113  -10.9528   0.0000   0.2241
 -13.100  -1.2442   0.02464   0.02046  -0.0134  1.0000  0.0114  -10.8213   0.0000   0.2248
 -13.000  -1.2392   0.02434   0.02013  -0.0127  1.0000  0.0115  -10.6864   0.0000   0.2256
 -12.900  -1.2337   0.02405   0.01980  -0.0119  1.0000  0.0116  -10.5481   0.0000   0.2263
 -12.800  -1.2278   0.02378   0.01949  -0.0112  1.0000  0.0118  -10.4065   0.0000   0.2269
 -12.700  -1.2215   0.02352   0.01920  -0.0106  1.0000  0.0119  -10.2614   0.0000   0.2276
 -12.600  -1.2147   0.02328   0.01892  -0.0100  1.0000  0.0120  -10.1131   0.0000   0.2281
 -12.500  -1.2076   0.02306   0.01867  -0.0095  1.0000  0.0120  -9.9618   0.0000   0.2287
 -12.400  -1.2008   0.02280   0.01838  -0.0089  1.0000  0.0121  -9.8160   0.0000   0.2293
 -12.300  -1.2008   0.02200   0.01750  -0.0075  1.0000  0.0123  -9.7478   0.0000   0.2305
 -12.200  -1.1974   0.02143   0.01689  -0.0066  1.0000  0.0126  -9.6419   0.0000   0.2315
 -12.100  -1.1920   0.02100   0.01643  -0.0058  1.0000  0.0128  -9.5144   0.0000   0.2322
 -12.000  -1.1855   0.02066   0.01607  -0.0052  1.0000  0.0129  -9.3749   0.0000   0.2328
 -11.900  -1.1782   0.02037   0.01576  -0.0047  1.0000  0.0131  -9.2289   0.0000   0.2333
 -11.800  -1.1705   0.02011   0.01547  -0.0042  1.0000  0.0133  -9.0800   0.0000   0.2339
 -11.700  -1.1627   0.01985   0.01519  -0.0038  1.0000  0.0135  -8.9308   0.0000   0.2344
 -11.600  -1.1547   0.01959   0.01492  -0.0033  1.0000  0.0136  -8.7821   0.0000   0.2349
 -11.500  -1.1466   0.01935   0.01465  -0.0029  1.0000  0.0138  -8.6330   0.0000   0.2353
 -11.400  -1.1383   0.01911   0.01438  -0.0025  1.0000  0.0140  -8.4860   0.0000   0.2358
 -11.300  -1.1299   0.01888   0.01413  -0.0021  1.0000  0.0142  -8.3669   0.0000   0.2363
 -11.200  -1.1213   0.01865   0.01388  -0.0017  1.0000  0.0144  -8.2478   0.0000   0.2367
 -11.100  -1.1126   0.01844   0.01363  -0.0014  1.0000  0.0146  -8.1287   0.0000   0.2372
 -11.000  -1.1038   0.01823   0.01339  -0.0010  1.0000  0.0148  -8.0093   0.0000   0.2376
 -10.900  -1.0948   0.01803   0.01316  -0.0007  1.0000  0.0150  -7.8894   0.0000   0.2381
 -10.800  -1.0856   0.01785   0.01295  -0.0004  1.0000  0.0151  -7.7689   0.0000   0.2385
 -10.700  -1.0763   0.01768   0.01275  -0.0001  1.0000  0.0152  -7.6480   0.0000   0.2389
 -10.600  -1.0702   0.01714   0.01216   0.0006  1.0000  0.0156  -7.5626   0.0000   0.2397
 -10.500  -1.0630   0.01671   0.01171   0.0012  1.0000  0.0159  -7.4650   0.0000   0.2403
 -10.400  -1.0547   0.01641   0.01139   0.0016  1.0000  0.0162  -7.3551   0.0000   0.2408
 -10.300  -1.0457   0.01616   0.01113   0.0019  1.0000  0.0165  -7.2401   0.0000   0.2413
 -10.200  -1.0365   0.01595   0.01090   0.0022  1.0000  0.0167  -7.1230   0.0000   0.2417
 -10.100  -1.0271   0.01575   0.01069   0.0025  1.0000  0.0170  -7.0055   0.0000   0.2421
 -10.000  -1.0177   0.01556   0.01048   0.0028  1.0000  0.0173  -6.8887   0.0000   0.2425
  -9.900  -1.0082   0.01537   0.01028   0.0031  1.0000  0.0176  -6.7728   0.0000   0.2430
  -9.800  -0.9986   0.01519   0.01006   0.0033  1.0000  0.0179  -6.6575   0.0000   0.2434
  -9.700  -0.9889   0.01501   0.00986   0.0036  1.0000  0.0182  -6.5425   0.0000   0.2438
  -9.600  -0.9791   0.01484   0.00967   0.0038  1.0000  0.0184  -6.4275   0.0000   0.2442
  -9.500  -0.9692   0.01469   0.00950   0.0041  1.0000  0.0187  -6.3121   0.0000   0.2446
  -9.400  -0.9591   0.01456   0.00935   0.0043  1.0000  0.0188  -6.1959   0.0000   0.2450
  -9.300  -0.9511   0.01414   0.00890   0.0048  1.0000  0.0194  -6.1026   0.0000   0.2456
  -9.200  -0.9418   0.01387   0.00863   0.0051  1.0000  0.0199  -5.9957   0.0000   0.2461
  -9.100  -0.9321   0.01368   0.00844   0.0053  1.0000  0.0204  -5.8835   0.0000   0.2465
  -9.000  -0.9212   0.01406   0.00826   0.0055  0.7377  0.0208  -5.7652   0.0000   0.2469
  -8.900  -0.9117   0.01403   0.00811   0.0058  0.7033  0.0213  -5.6639   0.0000   0.2474
  -8.700  -0.8918   0.01386   0.00779   0.0063  0.6704  0.0222  -5.4600   0.0000   0.2483
  -8.600  -0.8816   0.01377   0.00764   0.0065  0.6595  0.0226  -5.3582   0.0000   0.2487
  -8.500  -0.8713   0.01369   0.00751   0.0067  0.6501  0.0228  -5.2562   0.0000   0.2491
  -8.400  -0.8623   0.01339   0.00716   0.0070  0.6423  0.0236  -5.1687   0.0000   0.2497
  -8.300  -0.8525   0.01321   0.00695   0.0073  0.6350  0.0243  -5.0724   0.0000   0.2502
  -8.200  -0.8423   0.01307   0.00679   0.0075  0.6284  0.0249  -4.9731   0.0000   0.2506
  -8.100  -0.8321   0.01296   0.00665   0.0076  0.6219  0.0255  -4.8738   0.0000   0.2511
  -8.000  -0.8217   0.01285   0.00651   0.0078  0.6160  0.0261  -4.7750   0.0000   0.2515
  -7.900  -0.8112   0.01275   0.00637   0.0080  0.6099  0.0267  -4.6769   0.0000   0.2519
  -7.800  -0.8007   0.01267   0.00624   0.0081  0.6044  0.0272  -4.5786   0.0000   0.2523
  -7.700  -0.7907   0.01247   0.00602   0.0084  0.5990  0.0280  -4.4873   0.0000   0.2529
  -7.600  -0.7806   0.01231   0.00583   0.0086  0.5937  0.0290  -4.3934   0.0000   0.2533
  -7.500  -0.7702   0.01219   0.00570   0.0087  0.5889  0.0299  -4.2973   0.0000   0.2538
  -7.400  -0.7596   0.01209   0.00558   0.0089  0.5837  0.0308  -4.2013   0.0000   0.2542
  -7.300  -0.7490   0.01202   0.00547   0.0090  0.5788  0.0316  -4.1061   0.0000   0.2547
  -7.200  -0.7382   0.01194   0.00536   0.0091  0.5741  0.0323  -4.0114   0.0000   0.2551
  -7.100  -0.7282   0.01173   0.00514   0.0094  0.5691  0.0337  -3.9260   0.0000   0.2557
  -7.000  -0.7177   0.01162   0.00501   0.0095  0.5644  0.0348  -3.8416   0.0000   0.2562
  -6.900  -0.7070   0.01152   0.00490   0.0097  0.5600  0.0359  -3.7569   0.0000   0.2567
  -6.800  -0.6963   0.01144   0.00479   0.0098  0.5553  0.0370  -3.6726   0.0000   0.2571
  -6.700  -0.6856   0.01134   0.00466   0.0099  0.5509  0.0381  -3.5902   0.0000   0.2576
  -6.600  -0.6752   0.01119   0.00451   0.0101  0.5468  0.0397  -3.5092   0.0000   0.2582
  -6.500  -0.6645   0.01109   0.00440   0.0102  0.5423  0.0413  -3.4267   0.0000   0.2587
  -6.400  -0.6537   0.01102   0.00430   0.0103  0.5378  0.0427  -3.3444   0.0000   0.2592
  -6.300  -0.6430   0.01092   0.00418   0.0105  0.5337  0.0443  -3.2640   0.0000   0.2598
  -6.200  -0.6324   0.01080   0.00406   0.0106  0.5296  0.0463  -3.1843   0.0000   0.2603
  -6.100  -0.6216   0.01071   0.00396   0.0107  0.5253  0.0481  -3.1042   0.0000   0.2609
  -6.000  -0.6106   0.01066   0.00387   0.0108  0.5213  0.0496  -3.0244   0.0000   0.2614
  -5.900  -0.6000   0.01053   0.00375   0.0110  0.5176  0.0520  -2.9472   0.0000   0.2620
  -5.800  -0.5892   0.01044   0.00366   0.0111  0.5135  0.0542  -2.8695   0.0000   0.2626
  -5.700  -0.5782   0.01038   0.00357   0.0112  0.5094  0.0562  -2.7980   0.0000   0.2632
  -5.600  -0.5675   0.01028   0.00347   0.0113  0.5057  0.0590  -2.7283   0.0000   0.2639
  -5.500  -0.5566   0.01019   0.00338   0.0114  0.5020  0.0617  -2.6581   0.0000   0.2645
  -5.400  -0.5456   0.01013   0.00330   0.0115  0.4981  0.0640  -2.5880   0.0000   0.2652
  -5.300  -0.5348   0.01003   0.00320   0.0116  0.4943  0.0672  -2.5198   0.0000   0.2659
  -5.200  -0.5239   0.00996   0.00313   0.0117  0.4909  0.0701  -2.4513   0.0000   0.2665
  -5.100  -0.5129   0.00989   0.00305   0.0118  0.4874  0.0729  -2.3833   0.0000   0.2673
  -5.000  -0.5020   0.00980   0.00297   0.0119  0.4838  0.0764  -2.3162   0.0000   0.2680
  -4.900  -0.4909   0.00975   0.00290   0.0119  0.4801  0.0795  -2.2491   0.0000   0.2688
  -4.800  -0.4800   0.00968   0.00283   0.0120  0.4767  0.0830  -2.1846   0.0000   0.2696
  -4.700  -0.4690   0.00960   0.00276   0.0121  0.4735  0.0867  -2.1243   0.0000   0.2704
  -4.600  -0.4579   0.00955   0.00269   0.0122  0.4700  0.0898  -2.0643   0.0000   0.2712
  -4.500  -0.4470   0.00947   0.00261   0.0123  0.4666  0.0937  -2.0055   0.0000   0.2721
  -4.400  -0.4359   0.00942   0.00255   0.0124  0.4634  0.0974  -1.9466   0.0000   0.2731
  -4.300  -0.4249   0.00935   0.00249   0.0124  0.4605  0.1015  -1.8885   0.0000   0.2740
  -4.200  -0.4138   0.00928   0.00243   0.0125  0.4573  0.1059  -1.8308   0.0000   0.2750
  -4.100  -0.4027   0.00922   0.00237   0.0126  0.4540  0.1099  -1.7735   0.0000   0.2761
  -4.000  -0.3917   0.00915   0.00230   0.0127  0.4508  0.1146  -1.7205   0.0000   0.2772
  -3.900  -0.3806   0.00911   0.00225   0.0127  0.4478  0.1190  -1.6689   0.0000   0.2784
  -3.800  -0.3696   0.00903   0.00219   0.0128  0.4450  0.1247  -1.6180   0.0000   0.2796
  -3.700  -0.3584   0.00897   0.00214   0.0129  0.4421  0.1299  -1.5673   0.0000   0.2809
  -3.600  -0.3474   0.00890   0.00208   0.0129  0.4391  0.1362  -1.5174   0.0000   0.2823
  -3.500  -0.3363   0.00884   0.00202   0.0130  0.4362  0.1424  -1.4677   0.0000   0.2838
  -3.400  -0.3253   0.00878   0.00197   0.0131  0.4334  0.1498  -1.4214   0.0000   0.2853
  -3.300  -0.3142   0.00870   0.00192   0.0131  0.4308  0.1577  -1.3767   0.0000   0.2870
  -3.200  -0.3031   0.00863   0.00187   0.0132  0.4280  0.1659  -1.3324   0.0000   0.2888
  -3.100  -0.2921   0.00857   0.00182   0.0133  0.4252  0.1753  -1.2884   0.0000   0.2907
  -3.000  -0.2811   0.00849   0.00177   0.0133  0.4224  0.1859  -1.2451   0.0000   0.2927
  -2.900  -0.2701   0.00842   0.00173   0.0134  0.4197  0.1972  -1.2044   0.0000   0.2949
  -2.800  -0.2591   0.00833   0.00169   0.0134  0.4175  0.2094  -1.1651   0.0000   0.2973
  -2.700  -0.2481   0.00824   0.00164   0.0135  0.4150  0.2228  -1.1263   0.0000   0.2999
  -2.600  -0.2371   0.00816   0.00159   0.0136  0.4124  0.2374  -1.0877   0.0000   0.3027
  -2.500  -0.2261   0.00808   0.00155   0.0136  0.4098  0.2526  -1.0504   0.0000   0.3058
  -2.400  -0.2151   0.00800   0.00151   0.0137  0.4072  0.2689  -1.0156   0.0000   0.3092
  -2.300  -0.2042   0.00791   0.00148   0.0138  0.4047  0.2863  -0.9812   0.0000   0.3130
  -2.200  -0.1932   0.00782   0.00145   0.0138  0.4026  0.3041  -0.9468   0.0000   0.3172
  -2.100  -0.1822   0.00774   0.00142   0.0139  0.4003  0.3219  -0.9137   0.0000   0.3219
  -2.000  -0.1712   0.00765   0.00139   0.0140  0.3979  0.3394  -0.8825   0.0000   0.3272
  -1.900  -0.1602   0.00758   0.00136   0.0140  0.3956  0.3569  -0.8514   0.0000   0.3332
  -1.800  -0.1492   0.00752   0.00134   0.0141  0.3932  0.3739  -0.8206   0.0000   0.3401
  -1.700  -0.1381   0.00747   0.00131   0.0141  0.3908  0.3906  -0.7920   0.0000   0.3481
  -1.600  -0.1270   0.00740   0.00130   0.0142  0.3889  0.4067  -0.7637   0.0000   0.3576
  -1.500  -0.1159   0.00734   0.00128   0.0143  0.3866  0.4222  -0.7357   0.0000   0.3688
  -1.400  -0.1048   0.00728   0.00126   0.0143  0.3843  0.4375  -0.7091   0.0000   0.3824
  -1.300  -0.0937   0.00723   0.00125   0.0144  0.3820  0.4527  -0.6834   0.0000   0.3993
  -1.200  -0.0825   0.00718   0.00123   0.0144  0.3798  0.4675  -0.6579   0.0000   0.4207
  -1.100  -0.0714   0.00715   0.00122   0.0145  0.3776  0.4820  -0.6472   0.0000   0.4487
  -1.000  -0.0603   0.00709   0.00121   0.0145  0.3758  0.4966  -0.6590   0.0000   0.4872
  -0.900  -0.0491   0.00704   0.00121   0.0146  0.3738  0.5112  -0.6711   0.0000   0.5434
  -0.800  -0.0380   0.00699   0.00119   0.0147  0.3717  0.5256  -0.6833   0.0000   0.6325
  -0.700  -0.0268   0.00695   0.00118   0.0147  0.3695  0.5398  -0.6954   0.0000   0.7955
  -0.600  -0.0157   0.00691   0.00117   0.0148  0.3673  0.5545  -0.7076   0.0000   1.1889
  -0.500  -0.0046   0.00687   0.00117   0.0149  0.3651  0.5701  -0.7198   0.0000   3.4538
  -0.400   0.0064   0.00683   0.00116   0.0149  0.3630  0.5866  -0.7319   0.0000  -2.0955
  -0.300   0.0174   0.00676   0.00116   0.0150  0.3614  0.6041  -0.7442   0.0000  -0.6175
  -0.200   0.0283   0.00669   0.00115   0.0151  0.3595  0.6239  -0.7563   0.0000  -0.2886
  -0.100   0.0392   0.00662   0.00115   0.0153  0.3576  0.6461  -0.7685   0.0000  -0.1438
   0.000   0.0499   0.00654   0.00115   0.0154  0.3556  0.6706  -0.7810   0.0000  -0.0634
   0.100   0.0606   0.00648   0.00115   0.0156  0.3536  0.6961  -0.7936   0.0000  -0.0119
   0.200   0.0711   0.00641   0.00116   0.0158  0.3515  0.7218  -0.8062   0.0000   0.0231
   0.300   0.0816   0.00635   0.00118   0.0160  0.3494  0.7464  -0.8187   0.0000   0.0491
   0.400   0.0921   0.00628   0.00119   0.0163  0.3478  0.7702  -0.8314   0.0000   0.0689
   0.500   0.1025   0.00621   0.00120   0.0165  0.3460  0.7925  -0.8441   0.0000   0.0843
   0.600   0.1130   0.00616   0.00121   0.0168  0.3441  0.8133  -0.8567   0.0000   0.0966
   0.700   0.1235   0.00612   0.00123   0.0171  0.3423  0.8329  -0.8695   0.0000   0.1071
   0.800   0.1337   0.00609   0.00125   0.0174  0.3404  0.8524  -0.8821   0.0000   0.1151
   0.900   0.1440   0.00607   0.00127   0.0178  0.3386  0.8694  -0.8947   0.0000   0.1221
   1.000   0.1544   0.00607   0.00130   0.0181  0.3365  0.8862  -0.9076   0.0000   0.1284
   1.100   0.1650   0.00605   0.00133   0.0184  0.3350  0.9008  -0.9211   0.0000   0.1341
   1.200   0.1760   0.00604   0.00135   0.0186  0.3333  0.9154  -0.9349   0.0000   0.1397
   1.300   0.1872   0.00605   0.00137   0.0187  0.3314  0.9263  -0.9489   0.0000   0.1454
   1.400   0.2003   0.00607   0.00140   0.0185  0.3294  0.9372  -0.9644   0.0000   0.1531
   1.500   0.2135   0.00610   0.00143   0.0182  0.3273  0.9464  -0.9800   0.0000   0.1603
   1.600   0.2260   0.00614   0.00146   0.0180  0.3254  0.9539  -0.9951   0.0000   0.1657
   1.700   0.2372   0.00619   0.00149   0.0181  0.3234  0.9597  -1.0092   0.0000   0.1689
   1.800   0.2518   0.00622   0.00151   0.0175  0.3217  0.9640  -1.0259   0.0000   0.1760
   1.900   0.2678   0.00623   0.00153   0.0165  0.3199  0.9676  -1.0437   0.0000   0.1837
   2.000   0.2835   0.00626   0.00155   0.0156  0.3179  0.9708  -1.0616   0.0000   0.1902
   2.100   0.2989   0.00629   0.00157   0.0148  0.3158  0.9736  -1.0798   0.0000   0.1958
   2.200   0.3141   0.00633   0.00159   0.0140  0.3137  0.9760  -1.0979   0.0000   0.2007
   2.300   0.3290   0.00637   0.00161   0.0133  0.3116  0.9784  -1.1159   0.0000   0.2050
   2.400   0.3437   0.00642   0.00164   0.0126  0.3094  0.9806  -1.1337   0.0000   0.2087
   2.500   0.3583   0.00644   0.00166   0.0119  0.3079  0.9827  -1.1515   0.0000   0.2120
   2.600   0.3727   0.00646   0.00168   0.0113  0.3062  0.9847  -1.1693   0.0000   0.2150
   2.700   0.3870   0.00649   0.00170   0.0107  0.3043  0.9865  -1.1869   0.0000   0.2176
   2.800   0.4012   0.00652   0.00172   0.0101  0.3024  0.9882  -1.2046   0.0000   0.2200
   2.900   0.4153   0.00656   0.00175   0.0096  0.3005  0.9898  -1.2222   0.0000   0.2222
   3.000   0.4293   0.00661   0.00178   0.0090  0.2985  0.9912  -1.2400   0.0000   0.2242
   3.100   0.4432   0.00665   0.00181   0.0085  0.2965  0.9925  -1.2583   0.0000   0.2260
   3.200   0.4572   0.00667   0.00184   0.0079  0.2950  0.9936  -1.2768   0.0000   0.2277
   3.300   0.4712   0.00670   0.00186   0.0074  0.2932  0.9946  -1.2953   0.0000   0.2293
   3.400   0.4851   0.00673   0.00189   0.0069  0.2913  0.9955  -1.3138   0.0000   0.2308
   3.500   0.4989   0.00677   0.00192   0.0064  0.2895  0.9963  -1.3323   0.0000   0.2322
   3.600   0.5127   0.00681   0.00196   0.0059  0.2877  0.9970  -1.3508   0.0000   0.2334
   3.700   0.5264   0.00686   0.00200   0.0054  0.2858  0.9976  -1.3693   0.0000   0.2346
   3.800   0.5402   0.00691   0.00204   0.0049  0.2839  0.9982  -1.3878   0.0000   0.2358
   3.900   0.5539   0.00693   0.00206   0.0044  0.2817  0.9987  -1.4066   0.0000   0.2368
   4.000   0.5677   0.00695   0.00208   0.0039  0.2786  0.9991  -1.4255   0.0000   0.2378
   4.100   0.5812   0.00700   0.00211   0.0034  0.2750  0.9995  -1.4446   0.0000   0.2387
   4.200   0.5947   0.00706   0.00214   0.0029  0.2712  0.9999  -1.4642   0.0000   0.2396
   4.300   0.6056   0.00707   0.00216   0.0030  0.2672  1.0000  -1.4815   0.0000   0.2394
   4.400   0.6148   0.00713   0.00219   0.0034  0.2626  1.0000  -1.5333   0.0000   0.2388
   4.500   0.6242   0.00718   0.00222   0.0038  0.2584  1.0000  -1.6136   0.0000   0.2382
   4.600   0.6336   0.00721   0.00225   0.0042  0.2545  1.0000  -1.6955   0.0000   0.2376
   4.700   0.6431   0.00727   0.00229   0.0045  0.2508  1.0000  -1.7781   0.0000   0.2371
   4.800   0.6526   0.00733   0.00234   0.0049  0.2473  1.0000  -1.8617   0.0000   0.2366
   4.900   0.6622   0.00737   0.00238   0.0052  0.2432  1.0000  -1.9467   0.0000   0.2361
   5.000   0.6717   0.00745   0.00243   0.0055  0.2383  1.0000  -2.0316   0.0000   0.2356
   5.100   0.6814   0.00751   0.00248   0.0059  0.2338  1.0000  -2.1173   0.0000   0.2352
   5.200   0.6909   0.00760   0.00254   0.0062  0.2269  1.0000  -2.2020   0.0000   0.2348
   5.300   0.7005   0.00771   0.00261   0.0065  0.2178  1.0000  -2.2855   0.0000   0.2344
   5.400   0.7096   0.00790   0.00271   0.0068  0.2029  1.0000  -2.3625   0.0000   0.2340
   5.500   0.7151   0.00879   0.00320   0.0073  0.1308  1.0000  -2.4031   0.0000   0.2333
   5.600   0.7171   0.01050   0.00439   0.0079  0.0102  1.0000  -2.4134   0.0000   0.2323
   5.700   0.7265   0.01070   0.00460   0.0083  0.0079  1.0000  -2.4519   0.0000   0.2319
   5.800   0.7362   0.01083   0.00474   0.0086  0.0074  1.0000  -2.5146   0.0000   0.2316
   5.900   0.7459   0.01096   0.00488   0.0089  0.0070  1.0000  -2.5821   0.0000   0.2312
   6.000   0.7555   0.01109   0.00503   0.0092  0.0067  1.0000  -2.6515   0.0000   0.2309
   6.100   0.7652   0.01124   0.00519   0.0095  0.0065  1.0000  -2.7233   0.0000   0.2306
   6.200   0.7748   0.01139   0.00536   0.0098  0.0063  1.0000  -2.7968   0.0000   0.2303
   6.300   0.7844   0.01155   0.00554   0.0100  0.0061  1.0000  -2.8715   0.0000   0.2300
   6.400   0.7940   0.01171   0.00572   0.0103  0.0060  1.0000  -2.9468   0.0000   0.2297
   6.500   0.8035   0.01189   0.00591   0.0106  0.0059  1.0000  -3.0221   0.0000   0.2294
   6.600   0.8130   0.01208   0.00612   0.0109  0.0058  1.0000  -3.0970   0.0000   0.2291
   6.700   0.8224   0.01228   0.00634   0.0112  0.0057  1.0000  -3.1715   0.0000   0.2288
   6.800   0.8317   0.01249   0.00658   0.0115  0.0056  1.0000  -3.2453   0.0000   0.2285
   6.900   0.8409   0.01272   0.00683   0.0118  0.0055  1.0000  -3.3188   0.0000   0.2282
   7.000   0.8500   0.01295   0.00710   0.0121  0.0055  1.0000  -3.3919   0.0000   0.2279
   7.100   0.8590   0.01320   0.00738   0.0124  0.0055  1.0000  -3.4650   0.0000   0.2276
   7.200   0.8679   0.01347   0.00768   0.0127  0.0054  1.0000  -3.5379   0.0000   0.2272
   7.300   0.8767   0.01374   0.00798   0.0130  0.0054  1.0000  -3.6109   0.0000   0.2269
   7.400   0.8854   0.01402   0.00829   0.0134  0.0054  1.0000  -3.6840   0.0000   0.2266
   7.500   0.8940   0.01431   0.00862   0.0137  0.0054  1.0000  -3.7571   0.0000   0.2263
   7.600   0.9024   0.01462   0.00895   0.0141  0.0054  1.0000  -3.8302   0.0000   0.2259
   7.700   0.9107   0.01493   0.00930   0.0144  0.0054  1.0000  -3.9032   0.0000   0.2256
   7.800   0.9189   0.01525   0.00965   0.0148  0.0054  1.0000  -3.9763   0.0000   0.2252
   7.900   0.9269   0.01558   0.01001   0.0151  0.0054  1.0000  -4.0492   0.0000   0.2248
   8.000   0.9347   0.01592   0.01038   0.0155  0.0054  1.0000  -4.1220   0.0000   0.2245
   8.100   0.9424   0.01627   0.01076   0.0159  0.0054  1.0000  -4.1945   0.0000   0.2241
   8.200   0.9499   0.01662   0.01115   0.0163  0.0054  1.0000  -4.2665   0.0000   0.2237
   8.300   0.9572   0.01699   0.01155   0.0167  0.0054  1.0000  -4.3379   0.0000   0.2232
   8.400   0.9643   0.01736   0.01195   0.0172  0.0054  1.0000  -4.4084   0.0000   0.2228
   8.500   0.9712   0.01774   0.01237   0.0176  0.0054  1.0000  -4.4777   0.0000   0.2224
   8.600   0.9779   0.01814   0.01279   0.0181  0.0055  1.0000  -4.5452   0.0000   0.2219
   8.700   0.9842   0.01855   0.01323   0.0185  0.0055  1.0000  -4.6106   0.0000   0.2214
   8.800   0.9901   0.01897   0.01369   0.0191  0.0055  1.0000  -4.6728   0.0000   0.2209
   8.900   0.9957   0.01941   0.01417   0.0196  0.0056  1.0000  -4.7310   0.0000   0.2203
   9.000   1.0006   0.01988   0.01467   0.0202  0.0056  1.0000  -4.7836   0.0000   0.2197
   9.100   1.0049   0.02039   0.01521   0.0209  0.0057  1.0000  -4.8288   0.0000   0.2190
   9.200   1.0082   0.02093   0.01580   0.0216  0.0057  1.0000  -4.8649   0.0000   0.2182
   9.300   1.0104   0.02152   0.01642   0.0225  0.0058  1.0000  -4.8913   0.0000   0.2173
   9.400   1.0114   0.02214   0.01709   0.0234  0.0059  1.0000  -4.9093   0.0000   0.2162
   9.500   1.0113   0.02280   0.01779   0.0245  0.0060  1.0000  -4.9219   0.0000   0.2150
   9.600   1.0096   0.02349   0.01853   0.0256  0.0061  1.0000  -4.9214   0.0000   0.2137
   9.700   1.0055   0.02416   0.01924   0.0271  0.0062  1.0000  -4.9192   0.0000   0.2120
   9.800   0.9984   0.02480   0.01991   0.0290  0.0062  1.0000  -4.9136   0.0000   0.2097
   9.900   0.9924   0.02591   0.02109   0.0293  0.0063  1.0000  -4.9059   0.0000   0.2091
  10.000   0.9899   0.02759   0.02282   0.0278  0.0064  1.0000  -4.8997   0.0000   0.2103
  10.100   0.9884   0.02891   0.02418   0.0272  0.0065  1.0000  -4.9056   0.0000   0.2107
  10.200   0.9872   0.03007   0.02537   0.0270  0.0066  1.0000  -4.9219   0.0000   0.2107
  10.300   0.9864   0.03111   0.02643   0.0271  0.0067  1.0000  -4.9415   0.0000   0.2105
  10.400   0.9860   0.03204   0.02738   0.0273  0.0068  1.0000  -4.9640   0.0000   0.2101
  10.500   0.9860   0.03287   0.02822   0.0277  0.0069  1.0000  -4.9895   0.0000   0.2095
  10.600   0.9865   0.03359   0.02895   0.0284  0.0071  1.0000  -5.0168   0.0000   0.2087
  10.700   0.9875   0.03415   0.02951   0.0296  0.0073  1.0000  -5.0434   0.0000   0.2074
  11.200   1.1115   0.03817   0.03331   0.0352  0.0110  1.0000  -5.4919   0.0000   0.2054
  11.300   1.1103   0.03856   0.03376   0.0364  0.0109  1.0000  -5.5338   0.0000   0.2042
  11.400   1.1072   0.03886   0.03412   0.0378  0.0109  1.0000  -5.5685   0.0000   0.2027
  11.500   1.1007   0.03906   0.03438   0.0398  0.0109  1.0000  -5.5870   0.0000   0.2005
  11.600   1.0926   0.03926   0.03461   0.0420  0.0109  1.0000  -5.5970   0.0000   0.1981
  11.700   1.0844   0.03951   0.03491   0.0439  0.0108  1.0000  -5.6057   0.0000   0.1959
  11.800   1.0764   0.03985   0.03530   0.0453  0.0108  1.0000  -5.6143   0.0000   0.1942
  11.900   1.0689   0.04028   0.03578   0.0461  0.0108  1.0000  -5.6242   0.0000   0.1929
  12.000   1.0626   0.04084   0.03640   0.0462  0.0107  1.0000  -5.6385   0.0000   0.1923
  12.100   1.0587   0.04160   0.03723   0.0456  0.0107  1.0000  -5.6629   0.0000   0.1926
  12.200   1.0572   0.04252   0.03821   0.0444  0.0106  1.0000  -5.6966   0.0000   0.1934
  12.300   1.0567   0.04351   0.03926   0.0434  0.0104  1.0000  -5.7329   0.0000   0.1942
  12.400   1.0567   0.04453   0.04034   0.0425  0.0103  1.0000  -5.7693   0.0000   0.1948
  12.500   1.0568   0.04557   0.04142   0.0418  0.0102  1.0000  -5.8056   0.0000   0.1953
  12.600   1.0569   0.04662   0.04252   0.0412  0.0101  1.0000  -5.8414   0.0000   0.1957
  12.700   1.0570   0.04770   0.04365   0.0407  0.0100  1.0000  -5.8757   0.0000   0.1961
  12.800   1.0568   0.04880   0.04480   0.0401  0.0099  1.0000  -5.9080   0.0000   0.1964
  12.900   1.0562   0.04994   0.04598   0.0396  0.0099  1.0000  -5.9381   0.0000   0.1967
  13.000   1.0555   0.05111   0.04720   0.0391  0.0098  1.0000  -5.9666   0.0000   0.1969
  13.100   1.0546   0.05231   0.04845   0.0386  0.0097  1.0000  -5.9934   0.0000   0.1972
  13.200   1.0533   0.05355   0.04974   0.0381  0.0096  1.0000  -6.0183   0.0000   0.1975
  13.300   1.0520   0.05482   0.05105   0.0375  0.0096  1.0000  -6.0418   0.0000   0.1978
  13.400   1.0503   0.05613   0.05240   0.0369  0.0095  1.0000  -6.0636   0.0000   0.1981
  13.500   1.0484   0.05746   0.05378   0.0363  0.0094  1.0000  -6.0831   0.0000   0.1985
  13.600   1.0463   0.05881   0.05518   0.0357  0.0094  1.0000  -6.1013   0.0000   0.1988
  13.700   1.0440   0.06021   0.05662   0.0351  0.0093  1.0000  -6.1175   0.0000   0.1992
  13.800   1.0416   0.06163   0.05809   0.0344  0.0093  1.0000  -6.1325   0.0000   0.1995
  13.900   1.0389   0.06309   0.05959   0.0337  0.0093  1.0000  -6.1457   0.0000   0.1999
  14.000   0.9997   0.06548   0.06204   0.0369  0.0094  1.0000  -5.9605   0.0000   0.1954
  14.100   0.9969   0.06705   0.06365   0.0362  0.0094  1.0000  -5.9705   0.0000   0.1959
  14.200   0.9939   0.06866   0.06531   0.0355  0.0093  1.0000  -5.9786   0.0000   0.1963
  14.300   0.9908   0.07030   0.06699   0.0347  0.0093  1.0000  -5.9852   0.0000   0.1968
  14.400   0.9875   0.07197   0.06870   0.0340  0.0093  1.0000  -5.9900   0.0000   0.1973
  14.500   0.9839   0.07367   0.07044   0.0332  0.0092  1.0000  -5.9925   0.0000   0.1977
  14.600   0.9803   0.07541   0.07222   0.0323  0.0092  1.0000  -5.9941   0.0000   0.1983
  14.700   0.9766   0.07721   0.07407   0.0315  0.0092  1.0000  -5.9935   0.0000   0.1989
  14.800   0.9728   0.07904   0.07593   0.0306  0.0091  1.0000  -5.9921   0.0000   0.1995
  14.900   0.9688   0.08092   0.07787   0.0297  0.0091  1.0000  -5.9877   0.0000   0.2001
  15.000   0.9646   0.08282   0.07981   0.0288  0.0091  1.0000  -5.9824   0.0000   0.2008
  15.100   0.9601   0.08478   0.08180   0.0278  0.0091  1.0000  -5.9731   0.0000   0.2014
  15.200   0.9555   0.08673   0.08380   0.0269  0.0091  1.0000  -5.9630   0.0000   0.2020
  15.300   0.9506   0.08877   0.08587   0.0260  0.0090  1.0000  -5.9489   0.0000   0.2027
  15.400   0.9456   0.09080   0.08795   0.0251  0.0090  1.0000  -5.9341   0.0000   0.2034
  15.500   0.9401   0.09292   0.09011   0.0241  0.0090  1.0000  -5.9147   0.0000   0.2041
  15.600   0.9347   0.09504   0.09227   0.0232  0.0090  1.0000  -5.8945   0.0000   0.2048
  15.700   0.9286   0.09723   0.09450   0.0222  0.0090  1.0000  -5.8688   0.0000   0.2055
  15.800   0.9226   0.09943   0.09674   0.0213  0.0090  1.0000  -5.8426   0.0000   0.2062
  15.900   0.9162   0.10177   0.09911   0.0202  0.0090  1.0000  -5.8108   0.0000   0.2070
  16.000   0.9099   0.10415   0.10154   0.0191  0.0090  1.0000  -5.7785   0.0000   0.2079
  16.100   0.9033   0.10670   0.10413   0.0179  0.0090  1.0000  -5.7401   0.0000   0.2090
  16.200   0.8967   0.10933   0.10681   0.0165  0.0090  1.0000  -5.7001   0.0000   0.2103
  16.300   0.8899   0.11213   0.10965   0.0151  0.0090  1.0000  -5.6550   0.0000   0.2117
  16.400   0.8830   0.11508   0.11265   0.0134  0.0090  1.0000  -5.6051   0.0000   0.2133
  16.500   0.8760   0.11817   0.11578   0.0117  0.0090  1.0000  -5.5518   0.0000   0.2151
  16.600   0.8685   0.12151   0.11917   0.0097  0.0090  1.0000  -5.4890   0.0000   0.2172
  16.700   0.8607   0.12505   0.12276   0.0076  0.0090  1.0000  -5.4197   0.0000   0.2195
  16.800   0.8526   0.12882   0.12659   0.0052  0.0090  1.0000  -5.3425   0.0000   0.2221
  16.900   0.8439   0.13294   0.13076   0.0026  0.0090  1.0000  -5.2525   0.0000   0.2251
  17.000   0.8342   0.13750   0.13539  -0.0004  0.0091  1.0000  -5.1455   0.0000   0.2287
  17.100   0.8231   0.14272   0.14067  -0.0038  0.0091  1.0000  -5.0119   0.0000   0.2330
  17.200   0.8103   0.14875   0.14677  -0.0080  0.0092  1.0000  -4.8459   0.0000   0.2383
  17.300   0.7945   0.15616   0.15427  -0.0133  0.0093  1.0000  -4.6229   0.0000   0.2455
  17.400   0.7739   0.16584   0.16406  -0.0204  0.0095  1.0000  -4.2995   0.0000   0.2558
  17.500   0.7144   0.19357   0.19200  -0.0439  0.0099  1.0000  -2.9290   0.0000   0.2939
  17.600   0.7120   0.19664   0.19509  -0.0471  0.0097  1.0000  -2.7723   0.0000   0.2990
  17.700   0.7114   0.19924   0.19769  -0.0496  0.0096  1.0000  -2.6770   0.0000   0.3026
  17.800   0.7116   0.20162   0.20008  -0.0518  0.0094  1.0000  -2.6064   0.0000   0.3057
  17.900   0.7123   0.20385   0.20231  -0.0537  0.0093  1.0000  -2.5527   0.0000   0.3084
  18.000   0.7134   0.20595   0.20442  -0.0555  0.0091  1.0000  -2.5108   0.0000   0.3108
  18.100   0.7147   0.20796   0.20643  -0.0572  0.0090  1.0000  -2.4780   0.0000   0.3131
  18.200   0.7163   0.20988   0.20836  -0.0588  0.0089  1.0000  -2.4527   0.0000   0.3151
  18.300   0.7180   0.21173   0.21022  -0.0603  0.0088  1.0000  -2.4341   0.0000   0.3170
  18.400   0.7200   0.21351   0.21200  -0.0618  0.0087  1.0000  -2.4214   0.0000   0.3187
  18.500   0.7220   0.21523   0.21372  -0.0632  0.0086  1.0000  -2.4140   0.0000   0.3204
  18.600   0.7242   0.21689   0.21539  -0.0645  0.0085  1.0000  -2.4112   0.0000   0.3219
  18.700   0.7264   0.21852   0.21702  -0.0658  0.0085  1.0000  -2.4121   0.0000   0.3233
  18.800   0.7288   0.22009   0.21860  -0.0671  0.0084  1.0000  -2.4173   0.0000   0.3247
  18.900   0.7312   0.22161   0.22013  -0.0683  0.0083  1.0000  -2.4267   0.0000   0.3260
  19.000   0.7337   0.22308   0.22161  -0.0695  0.0083  1.0000  -2.4401   0.0000   0.3271
  19.100   0.7362   0.22457   0.22309  -0.0707  0.0082  1.0000  -2.4537   0.0000   0.3283
  19.200   0.7387   0.22602   0.22456  -0.0718  0.0081  1.0000  -2.4696   0.0000   0.3295
  19.300   0.7412   0.22744   0.22598  -0.0730  0.0081  1.0000  -2.4888   0.0000   0.3305
  19.400   0.7438   0.22884   0.22738  -0.0741  0.0080  1.0000  -2.5114   0.0000   0.3315
  19.500   0.7458   0.23047   0.22901  -0.0753  0.0079  1.0000  -2.5173   0.0000   0.3328
  19.600   0.7431   0.23489   0.23344  -0.0779  0.0077  1.0000  -2.2886   0.0000   0.3368
  19.700   0.7450   0.23707   0.23562  -0.0792  0.0077  1.0000  -2.2425   0.0000   0.3383
  19.800   0.7469   0.23922   0.23778  -0.0805  0.0077  1.0000  -2.1988   0.0000   0.3397
  19.900   0.7488   0.24135   0.23990  -0.0818  0.0077  1.0000  -2.1574   0.0000   0.3411
  20.000   0.7508   0.24345   0.24201  -0.0831  0.0077  1.0000  -2.1181   0.0000   0.3425
  20.100   0.7529   0.24553   0.24410  -0.0844  0.0077  1.0000  -2.0805   0.0000   0.3438
  20.200   0.7550   0.24761   0.24618  -0.0856  0.0077  1.0000  -2.0444   0.0000   0.3451
  20.300   0.7571   0.24967   0.24824  -0.0868  0.0076  1.0000  -2.0093   0.0000   0.3463
  20.400   0.7592   0.25173   0.25030  -0.0880  0.0076  1.0000  -1.9745   0.0000   0.3475
  20.500   0.7610   0.25409   0.25267  -0.0894  0.0075  1.0000  -1.9157   0.0000   0.3490
  20.600   0.7623   0.25685   0.25543  -0.0909  0.0074  1.0000  -1.8216   0.0000   0.3508
  20.700   0.7637   0.25954   0.25813  -0.0923  0.0072  1.0000  -1.7387   0.0000   0.3524
  20.800   0.7657   0.26170   0.26029  -0.0935  0.0070  1.0000  -1.6992   0.0000   0.3536
  20.900   0.7679   0.26372   0.26231  -0.0947  0.0069  1.0000  -1.6725   0.0000   0.3547
  21.000   0.7701   0.26568   0.26428  -0.0958  0.0068  1.0000  -1.6516   0.0000   0.3557
  21.100   0.7723   0.26761   0.26621  -0.0969  0.0067  1.0000  -1.6342   0.0000   0.3567
  21.200   0.7745   0.26952   0.26813  -0.0980  0.0066  1.0000  -1.6191   0.0000   0.3576
  21.300   0.7767   0.27141   0.27002  -0.0991  0.0065  1.0000  -1.6058   0.0000   0.3585
  21.400   0.7789   0.27329   0.27191  -0.1001  0.0064  1.0000  -1.5939   0.0000   0.3594
  21.500   0.7812   0.27516   0.27378  -0.1012  0.0063  1.0000  -1.5833   0.0000   0.3603
  21.600   0.7834   0.27703   0.27565  -0.1022  0.0063  1.0000  -1.5738   0.0000   0.3611
  21.700   0.7856   0.27889   0.27751  -0.1033  0.0062  1.0000  -1.5652   0.0000   0.3619
  21.800   0.7879   0.28074   0.27937  -0.1043  0.0061  1.0000  -1.5575   0.0000   0.3627
  21.900   0.7901   0.28258   0.28122  -0.1053  0.0061  1.0000  -1.5507   0.0000   0.3635
  22.000   0.7923   0.28443   0.28307  -0.1063  0.0060  1.0000  -1.5447   0.0000   0.3643
  22.100   0.7945   0.28626   0.28491  -0.1074  0.0060  1.0000  -1.5394   0.0000   0.3651
  22.200   0.7967   0.28810   0.28675  -0.1084  0.0059  1.0000  -1.5392   0.0000   0.3658
  22.300   0.7989   0.28993   0.28858  -0.1094  0.0059  1.0000  -1.5437   0.0000   0.3665
  22.400   0.8011   0.29175   0.29041  -0.1103  0.0058  1.0000  -1.5487   0.0000   0.3672
  22.500   0.8033   0.29357   0.29223  -0.1113  0.0058  1.0000  -1.5542   0.0000   0.3679
  22.600   0.8055   0.29539   0.29405  -0.1123  0.0057  1.0000  -1.5603   0.0000   0.3686
  22.700   0.8077   0.29720   0.29587  -0.1133  0.0057  1.0000  -1.5670   0.0000   0.3693
  22.800   0.8098   0.29901   0.29768  -0.1142  0.0056  1.0000  -1.5741   0.0000   0.3699
  22.900   0.8120   0.30081   0.29948  -0.1152  0.0056  1.0000  -1.5819   0.0000   0.3706
  23.000   0.8142   0.30260   0.30128  -0.1161  0.0056  1.0000  -1.5901   0.0000   0.3712
  23.100   0.8163   0.30439   0.30308  -0.1171  0.0055  1.0000  -1.5990   0.0000   0.3718
  23.200   0.8185   0.30618   0.30487  -0.1180  0.0055  1.0000  -1.6085   0.0000   0.3724
  23.300   0.8206   0.30796   0.30665  -0.1189  0.0055  1.0000  -1.6187   0.0000   0.3730
  23.400   0.8227   0.30972   0.30842  -0.1199  0.0054  1.0000  -1.6297   0.0000   0.3736
  23.500   0.8248   0.31143   0.31013  -0.1208  0.0054  1.0000  -1.6426   0.0000   0.3741
  23.600   0.8270   0.31314   0.31185  -0.1217  0.0054  1.0000  -1.6578   0.0000   0.3746
  23.700   0.8291   0.31486   0.31357  -0.1226  0.0053  1.0000  -1.6751   0.0000   0.3751
  23.800   0.8313   0.31653   0.31524  -0.1234  0.0053  1.0000  -1.6944   0.0000   0.3756
  23.900   0.8335   0.31816   0.31688  -0.1243  0.0053  1.0000  -1.7158   0.0000   0.3760
  24.000   0.8357   0.31978   0.31850  -0.1251  0.0052  1.0000  -1.7394   0.0000   0.3764
  24.100   0.8379   0.32136   0.32008  -0.1259  0.0052  1.0000  -1.7656   0.0000   0.3768
  24.200   0.8402   0.32291   0.32164  -0.1267  0.0052  1.0000  -1.7952   0.0000   0.3771
  24.300   0.8425   0.32455   0.32328  -0.1275  0.0051  1.0000  -1.8239   0.0000   0.3773
  24.400   0.9250   0.25950   0.25772  -0.0859  0.0052  1.0000  -2.5477   0.0000   0.3132
  24.500   0.9273   0.26032   0.25854  -0.0865  0.0052  1.0000  -2.5717   0.0000   0.3134
  24.600   0.9296   0.26113   0.25935  -0.0871  0.0052  1.0000  -2.5950   0.0000   0.3136
  24.700   0.9300   0.26289   0.26110  -0.0878  0.0050  1.0000  -2.5148   0.0000   0.3143
  24.800   0.9323   0.26391   0.26213  -0.0886  0.0050  1.0000  -2.5143   0.0000   0.3147
  24.900   0.9347   0.26494   0.26315  -0.0893  0.0050  1.0000  -2.5139   0.0000   0.3150
  25.000   0.9371   0.26596   0.26417  -0.0901  0.0050  1.0000  -2.5135   0.0000   0.3154


