xflr5 v6.47

 Calculated polar for: 763ER

 1 1 Reynolds number fixed          Mach number fixed         

 xtrf =   1.000 (top)        1.000 (bottom)
 Mach =   0.000     Re =     3.000 e 6     Ncrit =   9.000

  alpha     CL        CD       CDp       Cm    Top Xtr Bot Xtr   Cpmin    Chinge    XCp    
 ------- -------- --------- --------- -------- ------- ------- -------- --------- ---------
 -25.000  -0.8972   0.25622   0.25527   0.1022  1.0000  0.0012  -5.0006   0.0000   0.3380
 -24.900  -0.8946   0.25545   0.25450   0.1015  1.0000  0.0012  -4.9561   0.0000   0.3378
 -24.800  -0.8920   0.25465   0.25370   0.1009  1.0000  0.0012  -4.9154   0.0000   0.3376
 -24.700  -0.8894   0.25385   0.25291   0.1002  1.0000  0.0012  -4.8739   0.0000   0.3373
 -24.600  -0.8868   0.25306   0.25211   0.0995  1.0000  0.0012  -4.8315   0.0000   0.3371
 -24.500  -0.8842   0.25227   0.25132   0.0989  1.0000  0.0013  -4.7887   0.0000   0.3369
 -24.400  -0.8816   0.25147   0.25053   0.0982  1.0000  0.0013  -4.7464   0.0000   0.3367
 -24.300  -0.8790   0.25067   0.24972   0.0976  1.0000  0.0013  -4.7051   0.0000   0.3365
 -24.200  -0.8764   0.24986   0.24891   0.0969  1.0000  0.0013  -4.6657   0.0000   0.3362
 -24.100  -0.8737   0.24901   0.24807   0.0963  1.0000  0.0014  -4.6295   0.0000   0.3360
 -22.600  -0.8740   0.20136   0.20028   0.0613  1.0000  0.0048  -8.2154   0.0000   0.2932
 -22.500  -0.8767   0.19915   0.19806   0.0600  1.0000  0.0049  -8.3419   0.0000   0.2915
 -22.400  -0.8778   0.19734   0.19622   0.0588  1.0000  0.0049  -8.4124   0.0000   0.2901
 -22.300  -0.8837   0.19438   0.19325   0.0571  1.0000  0.0049  -8.6372   0.0000   0.2875
 -22.200  -0.8848   0.19258   0.19143   0.0559  1.0000  0.0049  -8.6989   0.0000   0.2862
 -22.100  -0.8859   0.19080   0.18964   0.0548  1.0000  0.0050  -8.7579   0.0000   0.2849
 -22.000  -0.8869   0.18906   0.18789   0.0537  1.0000  0.0051  -8.8107   0.0000   0.2836
 -21.900  -0.8878   0.18732   0.18614   0.0525  1.0000  0.0052  -8.8601   0.0000   0.2824
 -21.800  -0.8922   0.18481   0.18361   0.0509  1.0000  0.0053  -9.0102   0.0000   0.2803
 -21.700  -0.8939   0.18290   0.18170   0.0497  1.0000  0.0054  -9.0752   0.0000   0.2788
 -21.600  -0.8953   0.18107   0.17985   0.0485  1.0000  0.0054  -9.1295   0.0000   0.2775
 -21.500  -0.8969   0.17920   0.17797   0.0473  1.0000  0.0055  -9.1862   0.0000   0.2761
 -21.400  -0.8998   0.17704   0.17580   0.0459  1.0000  0.0056  -9.2785   0.0000   0.2744
 -21.300  -0.9049   0.17443   0.17317   0.0442  1.0000  0.0056  -9.4258   0.0000   0.2723
 -21.200  -0.9071   0.17244   0.17117   0.0429  1.0000  0.0057  -9.4905   0.0000   0.2708
 -21.100  -0.9094   0.17045   0.16917   0.0416  1.0000  0.0057  -9.5537   0.0000   0.2693
 -21.000  -0.9157   0.16760   0.16630   0.0397  1.0000  0.0058  -9.7215   0.0000   0.2670
 -20.900  -0.9190   0.16540   0.16409   0.0383  1.0000  0.0058  -9.8045   0.0000   0.2653
 -20.800  -0.9218   0.16331   0.16199   0.0369  1.0000  0.0059  -9.8715   0.0000   0.2638
 -20.700  -0.9266   0.16081   0.15947   0.0352  1.0000  0.0059  -9.9859   0.0000   0.2618
 -20.600  -0.9334   0.15791   0.15655   0.0333  1.0000  0.0059  -10.1463   0.0000   0.2595
 -20.500  -0.9375   0.15558   0.15420   0.0318  1.0000  0.0060  -10.2352   0.0000   0.2578
 -20.400  -0.9454   0.15249   0.15109   0.0297  1.0000  0.0060  -10.4105   0.0000   0.2554
 -20.300  -0.9524   0.14958   0.14815   0.0278  1.0000  0.0060  -10.5598   0.0000   0.2532
 -20.200  -0.9589   0.14678   0.14533   0.0259  1.0000  0.0060  -10.6928   0.0000   0.2511
 -20.100  -0.9710   0.14291   0.14143   0.0234  1.0000  0.0060  -10.9446   0.0000   0.2481
 -20.000  -0.9805   0.13957   0.13805   0.0211  1.0000  0.0060  -11.1317   0.0000   0.2456
 -19.900  -0.9959   0.13509   0.13353   0.0181  1.0000  0.0060  -11.4408   0.0000   0.2423
 -19.800  -1.0158   0.12980   0.12819   0.0145  1.0000  0.0059  -11.8320   0.0000   0.2384
 -19.700  -1.0406   0.12364   0.12197   0.0104  1.0000  0.0059  -12.3102   0.0000   0.2340
 -19.600  -1.0810   0.11472   0.11293   0.0043  1.0000  0.0057  -13.0759   0.0000   0.2279
 -19.500  -1.1285   0.10468   0.10278  -0.0026  1.0000  0.0055  -13.9422   0.0000   0.2216
 -19.400  -1.1761   0.09480   0.09277  -0.0092  1.0000  0.0053  -14.7742   0.0000   0.2161
 -19.300  -1.2132   0.08696   0.08482  -0.0143  1.0000  0.0051  -15.3832   0.0000   0.2122
 -19.200  -1.2439   0.08035   0.07813  -0.0185  1.0000  0.0050  -15.8612   0.0000   0.2092
 -19.100  -1.3055   0.06888   0.06647  -0.0261  1.0000  0.0049  -16.8584   0.0000   0.2043
 -19.000  -1.3412   0.06200   0.05948  -0.0305  1.0000  0.0049  -17.3848   0.0000   0.2018
 -18.900  -1.3650   0.05719   0.05458  -0.0335  1.0000  0.0049  -17.6987   0.0000   0.2002
 -18.800  -1.3831   0.05342   0.05073  -0.0358  1.0000  0.0049  -17.9086   0.0000   0.1991
 -18.700  -1.3978   0.05022   0.04747  -0.0376  1.0000  0.0049  -18.0591   0.0000   0.1984
 -18.600  -1.4102   0.04746   0.04464  -0.0390  1.0000  0.0049  -18.1671   0.0000   0.1978
 -18.500  -1.4209   0.04502   0.04215  -0.0402  1.0000  0.0049  -18.2435   0.0000   0.1974
 -18.400  -1.4303   0.04285   0.03993  -0.0412  1.0000  0.0049  -18.2961   0.0000   0.1971
 -18.300  -1.4388   0.04090   0.03793  -0.0420  1.0000  0.0049  -18.3299   0.0000   0.1970
 -18.200  -1.4465   0.03915   0.03612  -0.0425  1.0000  0.0049  -18.3484   0.0000   0.1970
 -18.100  -1.4534   0.03757   0.03450  -0.0428  1.0000  0.0049  -18.3535   0.0000   0.1972
 -18.000  -1.4598   0.03613   0.03302  -0.0430  1.0000  0.0049  -18.3463   0.0000   0.1974
 -17.900  -1.4657   0.03484   0.03169  -0.0429  1.0000  0.0049  -18.3286   0.0000   0.1978
 -17.800  -1.4711   0.03366   0.03047  -0.0427  1.0000  0.0049  -18.3023   0.0000   0.1983
 -17.700  -1.4760   0.03259   0.02936  -0.0424  1.0000  0.0049  -18.2678   0.0000   0.1988
 -17.600  -1.4806   0.03162   0.02835  -0.0419  1.0000  0.0049  -18.2255   0.0000   0.1994
 -17.500  -1.4847   0.03073   0.02743  -0.0413  1.0000  0.0049  -18.1763   0.0000   0.2001
 -17.400  -1.4885   0.02992   0.02658  -0.0406  1.0000  0.0049  -18.1204   0.0000   0.2008
 -17.300  -1.4918   0.02919   0.02582  -0.0398  1.0000  0.0049  -18.0572   0.0000   0.2016
 -17.200  -1.4949   0.02850   0.02510  -0.0389  1.0000  0.0049  -17.9895   0.0000   0.2025
 -17.100  -1.4979   0.02786   0.02443  -0.0380  1.0000  0.0049  -17.9193   0.0000   0.2034
 -17.000  -1.5000   0.02729   0.02382  -0.0369  1.0000  0.0049  -17.8380   0.0000   0.2043
 -16.900  -1.5025   0.02674   0.02324  -0.0358  1.0000  0.0049  -17.7595   0.0000   0.2053
 -16.800  -1.5040   0.02625   0.02273  -0.0347  1.0000  0.0049  -17.6685   0.0000   0.2062
 -16.700  -1.5064   0.02577   0.02222  -0.0334  1.0000  0.0049  -17.5881   0.0000   0.2073
 -16.600  -1.5094   0.02527   0.02167  -0.0319  1.0000  0.0050  -17.5168   0.0000   0.2085
 -16.500  -1.5129   0.02478   0.02115  -0.0303  1.0000  0.0050  -17.4504   0.0000   0.2098
 -16.400  -1.5153   0.02433   0.02067  -0.0288  1.0000  0.0051  -17.3690   0.0000   0.2110
 -16.300  -1.5180   0.02392   0.02022  -0.0270  1.0000  0.0051  -17.2907   0.0000   0.2123
 -16.200  -1.5205   0.02354   0.01981  -0.0253  1.0000  0.0052  -17.2089   0.0000   0.2137
 -16.100  -1.5213   0.02319   0.01943  -0.0237  1.0000  0.0052  -17.1085   0.0000   0.2149
 -16.000  -1.5226   0.02286   0.01908  -0.0219  1.0000  0.0053  -17.0118   0.0000   0.2162
 -15.900  -1.5250   0.02258   0.01877  -0.0199  1.0000  0.0053  -16.9269   0.0000   0.2177
 -15.800  -1.5283   0.02233   0.01849  -0.0176  1.0000  0.0054  -16.8508   0.0000   0.2194
 -15.700  -1.5272   0.02203   0.01817  -0.0161  1.0000  0.0055  -16.7274   0.0000   0.2205
 -15.600  -1.5239   0.02173   0.01784  -0.0151  1.0000  0.0055  -16.5800   0.0000   0.2214
 -15.500  -1.5200   0.02143   0.01752  -0.0141  1.0000  0.0056  -16.4263   0.0000   0.2222
 -15.400  -1.5155   0.02113   0.01720  -0.0132  1.0000  0.0057  -16.2673   0.0000   0.2229
 -15.300  -1.5106   0.02085   0.01690  -0.0123  1.0000  0.0058  -16.1037   0.0000   0.2236
 -15.200  -1.5053   0.02058   0.01661  -0.0115  1.0000  0.0058  -15.9360   0.0000   0.2243
 -15.100  -1.4997   0.02031   0.01632  -0.0108  1.0000  0.0059  -15.7651   0.0000   0.2249
 -15.000  -1.4937   0.02005   0.01605  -0.0101  1.0000  0.0060  -15.5917   0.0000   0.2255
 -14.900  -1.4875   0.01980   0.01578  -0.0094  1.0000  0.0060  -15.4161   0.0000   0.2261
 -14.800  -1.4810   0.01955   0.01551  -0.0087  1.0000  0.0061  -15.2385   0.0000   0.2267
 -14.700  -1.4743   0.01931   0.01526  -0.0081  1.0000  0.0062  -15.0592   0.0000   0.2273
 -14.600  -1.4674   0.01907   0.01500  -0.0075  1.0000  0.0062  -14.8786   0.0000   0.2278
 -14.500  -1.4602   0.01884   0.01476  -0.0070  1.0000  0.0063  -14.6968   0.0000   0.2283
 -14.400  -1.4529   0.01861   0.01452  -0.0064  1.0000  0.0064  -14.5140   0.0000   0.2289
 -14.300  -1.4454   0.01839   0.01428  -0.0059  1.0000  0.0064  -14.3305   0.0000   0.2294
 -14.200  -1.4378   0.01818   0.01405  -0.0054  1.0000  0.0065  -14.1463   0.0000   0.2299
 -14.100  -1.4300   0.01797   0.01382  -0.0049  1.0000  0.0066  -13.9614   0.0000   0.2303
 -14.000  -1.4220   0.01776   0.01360  -0.0045  1.0000  0.0066  -13.7760   0.0000   0.2308
 -13.900  -1.4139   0.01757   0.01339  -0.0040  1.0000  0.0067  -13.5903   0.0000   0.2313
 -13.800  -1.4057   0.01737   0.01318  -0.0036  1.0000  0.0067  -13.4041   0.0000   0.2317
 -13.700  -1.3974   0.01718   0.01297  -0.0032  1.0000  0.0068  -13.2176   0.0000   0.2322
 -13.600  -1.3889   0.01700   0.01278  -0.0028  1.0000  0.0068  -13.0308   0.0000   0.2326
 -13.500  -1.3803   0.01683   0.01259  -0.0024  1.0000  0.0068  -12.8438   0.0000   0.2330
 -13.400  -1.3715   0.01666   0.01241  -0.0020  1.0000  0.0069  -12.6568   0.0000   0.2334
 -13.300  -1.3627   0.01649   0.01223  -0.0017  1.0000  0.0069  -12.4699   0.0000   0.2338
 -13.200  -1.3538   0.01633   0.01205  -0.0013  1.0000  0.0069  -12.2833   0.0000   0.2342
 -13.100  -1.3451   0.01614   0.01185  -0.0010  1.0000  0.0070  -12.1015   0.0000   0.2347
 -13.000  -1.3371   0.01586   0.01155  -0.0005  1.0000  0.0072  -11.9313   0.0000   0.2352
 -12.900  -1.3288   0.01562   0.01128  -0.0001  1.0000  0.0074  -11.7582   0.0000   0.2356
 -12.800  -1.3203   0.01539   0.01103   0.0003  1.0000  0.0075  -11.5831   0.0000   0.2361
 -12.700  -1.3115   0.01518   0.01081   0.0007  1.0000  0.0077  -11.4065   0.0000   0.2365
 -12.600  -1.3026   0.01498   0.01060   0.0010  1.0000  0.0078  -11.2292   0.0000   0.2369
 -12.500  -1.2935   0.01479   0.01040   0.0013  1.0000  0.0080  -11.0512   0.0000   0.2374
 -12.400  -1.2844   0.01461   0.01022   0.0017  1.0000  0.0081  -10.8734   0.0000   0.2378
 -12.300  -1.2751   0.01443   0.01003   0.0020  1.0000  0.0082  -10.6959   0.0000   0.2382
 -12.200  -1.2658   0.01427   0.00986   0.0023  1.0000  0.0084  -10.5187   0.0000   0.2385
 -12.100  -1.2563   0.01410   0.00968   0.0025  1.0000  0.0085  -10.3421   0.0000   0.2389
 -12.000  -1.2468   0.01394   0.00952   0.0028  1.0000  0.0086  -10.1661   0.0000   0.2393
 -11.900  -1.2373   0.01379   0.00935   0.0031  1.0000  0.0087  -9.9908   0.0000   0.2397
 -11.800  -1.2276   0.01364   0.00919   0.0033  1.0000  0.0088  -9.8160   0.0000   0.2401
 -11.700  -1.2179   0.01349   0.00904   0.0036  1.0000  0.0089  -9.6419   0.0000   0.2404
 -11.600  -1.2081   0.01336   0.00889   0.0038  1.0000  0.0090  -9.4686   0.0000   0.2408
 -11.500  -1.1983   0.01322   0.00875   0.0041  1.0000  0.0091  -9.2960   0.0000   0.2412
 -11.400  -1.1884   0.01309   0.00860   0.0043  1.0000  0.0092  -9.1243   0.0000   0.2415
 -11.300  -1.1784   0.01296   0.00847   0.0045  1.0000  0.0092  -8.9660   0.0000   0.2419
 -11.200  -1.1684   0.01284   0.00834   0.0047  1.0000  0.0093  -8.8272   0.0000   0.2422
 -11.100  -1.1583   0.01272   0.00821   0.0049  1.0000  0.0093  -8.6889   0.0000   0.2426
 -11.000  -1.1488   0.01252   0.00800   0.0052  1.0000  0.0096  -8.5601   0.0000   0.2430
 -10.800  -1.1310   0.01270   0.00760   0.0061  0.7341  0.0101  -8.3104   0.0000   0.2441
 -10.700  -1.1213   0.01263   0.00743   0.0063  0.6941  0.0104  -8.1807   0.0000   0.2445
 -10.600  -1.1115   0.01253   0.00727   0.0065  0.6743  0.0106  -8.0493   0.0000   0.2449
 -10.500  -1.1015   0.01242   0.00713   0.0067  0.6609  0.0108  -7.9177   0.0000   0.2452
 -10.400  -1.0914   0.01232   0.00699   0.0069  0.6502  0.0110  -7.7864   0.0000   0.2456
 -10.300  -1.0812   0.01221   0.00686   0.0071  0.6418  0.0112  -7.6554   0.0000   0.2460
 -10.200  -1.0710   0.01210   0.00673   0.0073  0.6340  0.0114  -7.5249   0.0000   0.2463
 -10.100  -1.0607   0.01200   0.00660   0.0075  0.6271  0.0116  -7.3945   0.0000   0.2467
 -10.000  -1.0503   0.01192   0.00649   0.0076  0.6201  0.0118  -7.2643   0.0000   0.2470
  -9.900  -1.0398   0.01183   0.00639   0.0078  0.6143  0.0119  -7.1340   0.0000   0.2474
  -9.800  -1.0293   0.01176   0.00629   0.0079  0.6080  0.0120  -7.0042   0.0000   0.2477
  -9.700  -1.0188   0.01167   0.00619   0.0081  0.6028  0.0122  -6.8759   0.0000   0.2481
  -9.600  -1.0088   0.01151   0.00599   0.0083  0.5975  0.0127  -6.7562   0.0000   0.2485
  -9.400  -0.9882   0.01126   0.00572   0.0087  0.5877  0.0136  -6.5105   0.0000   0.2492
  -9.300  -0.9778   0.01115   0.00560   0.0088  0.5825  0.0140  -6.3873   0.0000   0.2496
  -9.200  -0.9673   0.01106   0.00549   0.0090  0.5774  0.0143  -6.2647   0.0000   0.2500
  -9.100  -0.9567   0.01097   0.00538   0.0091  0.5729  0.0146  -6.1427   0.0000   0.2503
  -9.000  -0.9461   0.01088   0.00528   0.0093  0.5679  0.0148  -6.0216   0.0000   0.2507
  -8.900  -0.9355   0.01080   0.00518   0.0094  0.5630  0.0150  -5.9070   0.0000   0.2511
  -8.800  -0.9247   0.01072   0.00508   0.0095  0.5589  0.0151  -5.7952   0.0000   0.2514
  -8.700  -0.9140   0.01065   0.00499   0.0096  0.5543  0.0152  -5.6839   0.0000   0.2518
  -8.500  -0.8930   0.01041   0.00471   0.0099  0.5457  0.0164  -5.4722   0.0000   0.2526
  -8.400  -0.8824   0.01031   0.00460   0.0101  0.5411  0.0169  -5.3653   0.0000   0.2530
  -8.300  -0.8718   0.01022   0.00450   0.0102  0.5363  0.0174  -5.2586   0.0000   0.2534
  -8.200  -0.8610   0.01013   0.00440   0.0103  0.5325  0.0178  -5.1521   0.0000   0.2538
  -8.100  -0.8503   0.01005   0.00431   0.0105  0.5285  0.0182  -5.0462   0.0000   0.2542
  -8.000  -0.8394   0.00998   0.00423   0.0106  0.5241  0.0185  -4.9406   0.0000   0.2546
  -7.900  -0.8285   0.00993   0.00415   0.0107  0.5199  0.0188  -4.8354   0.0000   0.2550
  -7.800  -0.8177   0.00984   0.00405   0.0108  0.5164  0.0193  -4.7329   0.0000   0.2554
  -7.700  -0.8071   0.00973   0.00393   0.0109  0.5122  0.0202  -4.6324   0.0000   0.2558
  -7.600  -0.7963   0.00964   0.00384   0.0110  0.5077  0.0209  -4.5313   0.0000   0.2562
  -7.500  -0.7855   0.00956   0.00375   0.0111  0.5042  0.0216  -4.4305   0.0000   0.2567
  -7.400  -0.7746   0.00949   0.00366   0.0112  0.5006  0.0221  -4.3302   0.0000   0.2571
  -7.300  -0.7636   0.00943   0.00359   0.0113  0.4966  0.0225  -4.2304   0.0000   0.2575
  -7.200  -0.7526   0.00938   0.00351   0.0114  0.4924  0.0228  -4.1312   0.0000   0.2579
  -7.100  -0.7418   0.00929   0.00342   0.0115  0.4893  0.0239  -4.0349   0.0000   0.2584
  -7.000  -0.7309   0.00920   0.00333   0.0116  0.4858  0.0249  -3.9456   0.0000   0.2589
  -6.900  -0.7200   0.00912   0.00325   0.0117  0.4819  0.0257  -3.8571   0.0000   0.2593
  -6.800  -0.7090   0.00906   0.00317   0.0118  0.4777  0.0265  -3.7691   0.0000   0.2598
  -6.700  -0.6980   0.00900   0.00310   0.0119  0.4748  0.0271  -3.6814   0.0000   0.2603
  -6.600  -0.6869   0.00894   0.00303   0.0120  0.4716  0.0279  -3.5949   0.0000   0.2607
  -6.500  -0.6760   0.00885   0.00294   0.0121  0.4680  0.0295  -3.5099   0.0000   0.2612
  -6.400  -0.6651   0.00879   0.00287   0.0122  0.4642  0.0307  -3.4250   0.0000   0.2618
  -6.300  -0.6540   0.00873   0.00280   0.0123  0.4611  0.0316  -3.3404   0.0000   0.2623
  -6.200  -0.6429   0.00868   0.00274   0.0123  0.4582  0.0322  -3.2562   0.0000   0.2628
  -6.100  -0.6319   0.00860   0.00266   0.0124  0.4548  0.0340  -3.1741   0.0000   0.2633
  -6.000  -0.6209   0.00853   0.00259   0.0125  0.4511  0.0354  -3.0922   0.0000   0.2639
  -5.900  -0.6098   0.00848   0.00253   0.0126  0.4477  0.0367  -3.0107   0.0000   0.2644
  -5.800  -0.5986   0.00843   0.00247   0.0126  0.4453  0.0375  -2.9295   0.0000   0.2650
  -5.700  -0.5875   0.00836   0.00240   0.0127  0.4424  0.0396  -2.8526   0.0000   0.2656
  -5.600  -0.5765   0.00829   0.00234   0.0128  0.4392  0.0414  -2.7799   0.0000   0.2662
  -5.500  -0.5653   0.00824   0.00228   0.0129  0.4357  0.0429  -2.7075   0.0000   0.2668
  -5.400  -0.5542   0.00819   0.00222   0.0129  0.4328  0.0448  -2.6360   0.0000   0.2675
  -5.300  -0.5431   0.00812   0.00216   0.0130  0.4303  0.0471  -2.5653   0.0000   0.2682
  -5.200  -0.5319   0.00807   0.00211   0.0131  0.4274  0.0488  -2.4948   0.0000   0.2689
  -5.100  -0.5207   0.00802   0.00206   0.0131  0.4244  0.0505  -2.4249   0.0000   0.2696
  -5.000  -0.5096   0.00796   0.00200   0.0132  0.4211  0.0531  -2.3563   0.0000   0.2703
  -4.900  -0.4984   0.00791   0.00195   0.0132  0.4186  0.0553  -2.2878   0.0000   0.2711
  -4.800  -0.4872   0.00786   0.00190   0.0133  0.4164  0.0572  -2.2197   0.0000   0.2718
  -4.700  -0.4760   0.00780   0.00184   0.0134  0.4138  0.0606  -2.1566   0.0000   0.2727
  -4.600  -0.4648   0.00775   0.00180   0.0134  0.4109  0.0631  -2.0955   0.0000   0.2735
  -4.500  -0.4536   0.00771   0.00175   0.0135  0.4078  0.0656  -2.0350   0.0000   0.2744
  -4.400  -0.4424   0.00766   0.00170   0.0135  0.4048  0.0687  -1.9753   0.0000   0.2753
  -4.300  -0.4311   0.00761   0.00166   0.0136  0.4030  0.0710  -1.9156   0.0000   0.2763
  -4.200  -0.4199   0.00757   0.00162   0.0136  0.4008  0.0740  -1.8567   0.0000   0.2773
  -4.100  -0.4086   0.00751   0.00158   0.0137  0.3984  0.0775  -1.7986   0.0000   0.2784
  -4.000  -0.3973   0.00748   0.00154   0.0137  0.3957  0.0800  -1.7417   0.0000   0.2795
  -3.900  -0.3861   0.00744   0.00150   0.0137  0.3927  0.0837  -1.6894   0.0000   0.2806
  -3.800  -0.3748   0.00739   0.00146   0.0138  0.3903  0.0868  -1.6373   0.0000   0.2819
  -3.700  -0.3634   0.00736   0.00143   0.0138  0.3885  0.0890  -1.5855   0.0000   0.2832
  -3.600  -0.3522   0.00731   0.00139   0.0139  0.3863  0.0933  -1.5346   0.0000   0.2846
  -3.500  -0.3409   0.00727   0.00135   0.0139  0.3839  0.0969  -1.4840   0.0000   0.2860
  -3.400  -0.3296   0.00724   0.00132   0.0139  0.3815  0.1002  -1.4349   0.0000   0.2876
  -3.300  -0.3183   0.00719   0.00128   0.0140  0.3788  0.1044  -1.3895   0.0000   0.2892
  -3.200  -0.3069   0.00716   0.00126   0.0140  0.3766  0.1077  -1.3441   0.0000   0.2910
  -3.100  -0.2956   0.00711   0.00122   0.0141  0.3750  0.1126  -1.2994   0.0000   0.2929
  -3.000  -0.2843   0.00707   0.00119   0.0141  0.3731  0.1171  -1.2550   0.0000   0.2950
  -2.900  -0.2730   0.00703   0.00116   0.0141  0.3709  0.1218  -1.2122   0.0000   0.2972
  -2.800  -0.2616   0.00700   0.00113   0.0142  0.3685  0.1269  -1.1722   0.0000   0.2996
  -2.700  -0.2503   0.00696   0.00111   0.0142  0.3659  0.1323  -1.1325   0.0000   0.3022
  -2.600  -0.2390   0.00692   0.00108   0.0142  0.3632  0.1386  -1.0932   0.0000   0.3050
  -2.500  -0.2277   0.00687   0.00105   0.0142  0.3620  0.1450  -1.0544   0.0000   0.3082
  -2.400  -0.2163   0.00683   0.00102   0.0143  0.3604  0.1511  -1.0187   0.0000   0.3116
  -2.300  -0.2051   0.00678   0.00100   0.0143  0.3586  0.1594  -0.9835   0.0000   0.3154
  -2.200  -0.1937   0.00674   0.00097   0.0143  0.3565  0.1672  -0.9485   0.0000   0.3197
  -2.100  -0.1824   0.00670   0.00095   0.0144  0.3543  0.1751  -0.9145   0.0000   0.3245
  -2.000  -0.1712   0.00665   0.00093   0.0144  0.3517  0.1848  -0.8829   0.0000   0.3299
  -1.900  -0.1599   0.00660   0.00090   0.0144  0.3493  0.1950  -0.8514   0.0000   0.3360
  -1.800  -0.1486   0.00655   0.00088   0.0145  0.3481  0.2053  -0.8201   0.0000   0.3431
  -1.700  -0.1373   0.00650   0.00086   0.0145  0.3466  0.2158  -0.7910   0.0000   0.3513
  -1.600  -0.1260   0.00645   0.00084   0.0145  0.3449  0.2276  -0.7625   0.0000   0.3610
  -1.400  -0.1034   0.00634   0.00080   0.0146  0.3410  0.2530  -0.7074   0.0000   0.3867
  -1.300  -0.0922   0.00629   0.00078   0.0146  0.3387  0.2665  -0.6816   0.0000   0.4043
  -0.900  -0.0470   0.00608   0.00073   0.0147  0.3318  0.3230  -0.6747   0.0000   0.5586
  -0.800  -0.0357   0.00604   0.00072   0.0147  0.3300  0.3370  -0.6870   0.0000   0.6583
  -0.700  -0.0244   0.00600   0.00071   0.0147  0.3280  0.3503  -0.6993   0.0000   0.8504
  -0.600  -0.0131   0.00596   0.00070   0.0148  0.3260  0.3637  -0.7116   0.0000   1.3746
  -0.500  -0.0018   0.00593   0.00069   0.0148  0.3236  0.3771  -0.7240   0.0000   8.5946
  -0.400   0.0096   0.00589   0.00069   0.0148  0.3222  0.3898  -0.7365   0.0000  -1.2992
  -0.300   0.0210   0.00585   0.00068   0.0148  0.3210  0.4018  -0.7490   0.0000  -0.4613
  -0.200   0.0323   0.00581   0.00068   0.0148  0.3195  0.4139  -0.7615   0.0000  -0.2130
  -0.100   0.0437   0.00578   0.00068   0.0148  0.3177  0.4261  -0.7741   0.0000  -0.0939
   0.000   0.0551   0.00576   0.00067   0.0148  0.3158  0.4376  -0.7871   0.0000  -0.0239
   0.100   0.0665   0.00574   0.00067   0.0149  0.3137  0.4486  -0.8003   0.0000   0.0221
   0.200   0.0779   0.00572   0.00068   0.0149  0.3113  0.4598  -0.8135   0.0000   0.0546
   0.300   0.0893   0.00570   0.00068   0.0149  0.3095  0.4716  -0.8267   0.0000   0.0788
   0.400   0.1007   0.00567   0.00068   0.0149  0.3085  0.4832  -0.8400   0.0000   0.0976
   0.500   0.1121   0.00564   0.00068   0.0149  0.3072  0.4943  -0.8534   0.0000   0.1126
   0.600   0.1235   0.00562   0.00068   0.0149  0.3057  0.5053  -0.8668   0.0000   0.1249
   0.700   0.1349   0.00560   0.00069   0.0149  0.3039  0.5170  -0.8802   0.0000   0.1350
   0.800   0.1463   0.00558   0.00069   0.0149  0.3020  0.5292  -0.8936   0.0000   0.1435
   0.900   0.1577   0.00556   0.00070   0.0149  0.2998  0.5415  -0.9071   0.0000   0.1507
   1.000   0.1690   0.00554   0.00071   0.0150  0.2974  0.5546  -0.9209   0.0000   0.1570
   1.100   0.1804   0.00551   0.00071   0.0150  0.2962  0.5681  -0.9350   0.0000   0.1625
   1.200   0.1917   0.00547   0.00072   0.0150  0.2950  0.5836  -0.9491   0.0000   0.1673
   1.300   0.2030   0.00543   0.00072   0.0150  0.2936  0.6012  -0.9633   0.0000   0.1715
   1.400   0.2142   0.00538   0.00073   0.0151  0.2921  0.6216  -0.9774   0.0000   0.1752
   1.500   0.2254   0.00533   0.00074   0.0151  0.2904  0.6456  -0.9915   0.0000   0.1784
   1.600   0.2364   0.00527   0.00075   0.0152  0.2886  0.6721  -1.0055   0.0000   0.1813
   1.700   0.2474   0.00521   0.00077   0.0152  0.2865  0.6985  -1.0196   0.0000   0.1838
   1.800   0.2584   0.00516   0.00078   0.0153  0.2844  0.7248  -1.0336   0.0000   0.1860
   1.900   0.2694   0.00510   0.00079   0.0154  0.2834  0.7489  -1.0478   0.0000   0.1881
   2.000   0.2804   0.00505   0.00081   0.0155  0.2822  0.7713  -1.0620   0.0000   0.1899
   2.100   0.2914   0.00500   0.00083   0.0156  0.2807  0.7921  -1.0768   0.0000   0.1916
   2.200   0.3023   0.00497   0.00085   0.0158  0.2791  0.8108  -1.0916   0.0000   0.1931
   2.300   0.3133   0.00494   0.00086   0.0159  0.2774  0.8284  -1.1065   0.0000   0.1945
   2.400   0.3240   0.00491   0.00089   0.0161  0.2756  0.8466  -1.1212   0.0000   0.1956
   2.500   0.3350   0.00491   0.00091   0.0162  0.2736  0.8600  -1.1362   0.0000   0.1968
   2.600   0.3455   0.00488   0.00094   0.0164  0.2719  0.8775  -1.1508   0.0000   0.1975
   2.700   0.3565   0.00487   0.00096   0.0166  0.2711  0.8892  -1.1659   0.0000   0.1986
   2.800   0.3670   0.00484   0.00098   0.0168  0.2700  0.9040  -1.1806   0.0000   0.1991
   2.900   0.3777   0.00484   0.00100   0.0170  0.2680  0.9166  -1.1956   0.0000   0.1999
   3.000   0.3889   0.00487   0.00103   0.0171  0.2646  0.9241  -1.2110   0.0000   0.2009
   3.100   0.3997   0.00490   0.00107   0.0173  0.2600  0.9368  -1.2260   0.0000   0.2016
   3.200   0.4109   0.00491   0.00110   0.0174  0.2574  0.9473  -1.2420   0.0000   0.2025
   3.300   0.4222   0.00494   0.00112   0.0174  0.2541  0.9547  -1.2583   0.0000   0.2035
   3.400   0.4336   0.00498   0.00115   0.0175  0.2513  0.9594  -1.2745   0.0000   0.2044
   3.500   0.4460   0.00502   0.00118   0.0173  0.2484  0.9644  -1.2918   0.0000   0.2060
   3.600   0.4600   0.00504   0.00121   0.0167  0.2470  0.9699  -1.3104   0.0000   0.2083
   3.700   0.4739   0.00507   0.00123   0.0162  0.2451  0.9743  -1.3290   0.0000   0.2104
   3.800   0.4875   0.00510   0.00126   0.0157  0.2429  0.9778  -1.3475   0.0000   0.2123
   3.900   0.5009   0.00514   0.00129   0.0153  0.2403  0.9808  -1.3657   0.0000   0.2140
   4.000   0.5140   0.00520   0.00132   0.0149  0.2366  0.9833  -1.3839   0.0000   0.2155
   4.100   0.5271   0.00523   0.00135   0.0145  0.2330  0.9853  -1.4021   0.0000   0.2168
   4.200   0.5399   0.00531   0.00139   0.0142  0.2268  0.9871  -1.4200   0.0000   0.2181
   4.300   0.5528   0.00536   0.00143   0.0139  0.2228  0.9887  -1.4383   0.0000   0.2192
   4.400   0.5655   0.00544   0.00147   0.0136  0.2171  0.9901  -1.4570   0.0000   0.2202
   4.500   0.5781   0.00550   0.00151   0.0133  0.2125  0.9914  -1.4758   0.0000   0.2212
   4.600   0.5907   0.00560   0.00157   0.0130  0.2049  0.9925  -1.5670   0.0000   0.2222
   4.700   0.6032   0.00569   0.00163   0.0127  0.1970  0.9934  -1.6605   0.0000   0.2230
   4.800   0.6156   0.00581   0.00170   0.0124  0.1874  0.9943  -1.7541   0.0000   0.2238
   4.900   0.6277   0.00600   0.00181   0.0121  0.1715  0.9951  -1.8457   0.0000   0.2246
   5.000   0.6385   0.00652   0.00210   0.0118  0.1286  0.9959  -1.9280   0.0000   0.2253
   5.100   0.6465   0.00792   0.00300   0.0117  0.0065  0.9968  -1.9835   0.0000   0.2257
   5.200   0.6590   0.00802   0.00309   0.0114  0.0041  0.9972  -2.0554   0.0000   0.2264
   5.300   0.6714   0.00812   0.00319   0.0112  0.0034  0.9976  -2.1228   0.0000   0.2270
   5.400   0.6839   0.00822   0.00330   0.0109  0.0031  0.9980  -2.1900   0.0000   0.2276
   5.500   0.6963   0.00833   0.00342   0.0107  0.0029  0.9983  -2.2623   0.0000   0.2282
   5.600   0.7087   0.00844   0.00355   0.0104  0.0029  0.9986  -2.3382   0.0000   0.2287
   5.700   0.7211   0.00854   0.00365   0.0102  0.0029  0.9988  -2.4316   0.0000   0.2292
   5.800   0.7334   0.00864   0.00375   0.0099  0.0028  0.9990  -2.5256   0.0000   0.2297
   5.900   0.7458   0.00874   0.00386   0.0097  0.0028  0.9992  -2.6202   0.0000   0.2302
   6.000   0.7582   0.00885   0.00397   0.0094  0.0028  0.9994  -2.7156   0.0000   0.2306
   6.100   0.7706   0.00896   0.00409   0.0091  0.0028  0.9996  -2.8118   0.0000   0.2311
   6.200   0.7831   0.00908   0.00423   0.0089  0.0028  0.9997  -2.9085   0.0000   0.2316
   6.300   0.7956   0.00921   0.00436   0.0086  0.0028  0.9999  -3.0059   0.0000   0.2320
   6.400   0.8078   0.00934   0.00451   0.0083  0.0028  1.0000  -3.1024   0.0000   0.2324
   6.500   0.8174   0.00947   0.00465   0.0086  0.0028  1.0000  -3.1887   0.0000   0.2320
   6.600   0.8271   0.00961   0.00480   0.0089  0.0028  1.0000  -3.2755   0.0000   0.2317
   6.700   0.8367   0.00976   0.00496   0.0092  0.0028  1.0000  -3.3625   0.0000   0.2314
   6.800   0.8464   0.00991   0.00512   0.0095  0.0028  1.0000  -3.4496   0.0000   0.2311
   6.900   0.8561   0.01007   0.00530   0.0098  0.0028  1.0000  -3.5367   0.0000   0.2308
   7.000   0.8657   0.01024   0.00549   0.0100  0.0028  1.0000  -3.6236   0.0000   0.2305
   7.100   0.8753   0.01042   0.00569   0.0103  0.0028  1.0000  -3.7101   0.0000   0.2302
   7.200   0.8848   0.01062   0.00591   0.0106  0.0028  1.0000  -3.7961   0.0000   0.2299
   7.300   0.8942   0.01082   0.00613   0.0109  0.0028  1.0000  -3.8812   0.0000   0.2297
   7.400   0.9035   0.01104   0.00638   0.0112  0.0028  1.0000  -3.9651   0.0000   0.2294
   7.500   0.9127   0.01128   0.00664   0.0115  0.0028  1.0000  -4.0474   0.0000   0.2290
   7.600   0.9217   0.01154   0.00693   0.0118  0.0028  1.0000  -4.1273   0.0000   0.2287
   7.700   0.9305   0.01183   0.00725   0.0121  0.0028  1.0000  -4.2034   0.0000   0.2284
   7.800   0.9389   0.01217   0.00763   0.0125  0.0028  1.0000  -4.2712   0.0000   0.2280
   9.100   1.0468   0.01561   0.01132   0.0173  0.0030  1.0000  -5.4581   0.0000   0.2232
   9.200   1.0546   0.01587   0.01159   0.0178  0.0031  1.0000  -5.5574   0.0000   0.2228
   9.300   1.0622   0.01613   0.01186   0.0182  0.0031  1.0000  -5.6562   0.0000   0.2224
   9.400   1.0696   0.01640   0.01215   0.0186  0.0031  1.0000  -5.7540   0.0000   0.2220
   9.500   1.0769   0.01668   0.01245   0.0191  0.0031  1.0000  -5.8505   0.0000   0.2215
   9.600   1.0840   0.01697   0.01275   0.0196  0.0032  1.0000  -5.9449   0.0000   0.2210
   9.700   1.0907   0.01727   0.01308   0.0201  0.0032  1.0000  -6.0360   0.0000   0.2206
   9.800   1.0970   0.01761   0.01344   0.0206  0.0032  1.0000  -6.1217   0.0000   0.2200
   9.900   1.1028   0.01798   0.01383   0.0212  0.0032  1.0000  -6.2026   0.0000   0.2195
  10.000   1.1081   0.01838   0.01425   0.0219  0.0032  1.0000  -6.2793   0.0000   0.2189
  10.100   1.1128   0.01880   0.01470   0.0225  0.0033  1.0000  -6.3524   0.0000   0.2182
  10.200   1.1170   0.01924   0.01517   0.0232  0.0033  1.0000  -6.4223   0.0000   0.2175
  10.300   1.1204   0.01971   0.01567   0.0240  0.0033  1.0000  -6.4849   0.0000   0.2168
  10.400   1.1225   0.02024   0.01625   0.0249  0.0034  1.0000  -6.5269   0.0000   0.2159
  13.100   1.0715   0.04824   0.04520   0.0308  0.0046  1.0000  -6.9607   0.0000   0.2051
  13.200   1.0717   0.04939   0.04637   0.0304  0.0046  1.0000  -7.0115   0.0000   0.2053
  13.300   1.0715   0.05059   0.04760   0.0300  0.0046  1.0000  -7.0581   0.0000   0.2055
  13.400   1.0714   0.05178   0.04882   0.0296  0.0045  1.0000  -7.1043   0.0000   0.2057
  13.500   1.0709   0.05302   0.05009   0.0292  0.0045  1.0000  -7.1464   0.0000   0.2059
  13.600   1.0703   0.05426   0.05135   0.0288  0.0045  1.0000  -7.1873   0.0000   0.2061
  13.700   1.0695   0.05553   0.05266   0.0283  0.0044  1.0000  -7.2256   0.0000   0.2063
  13.800   1.0686   0.05684   0.05400   0.0279  0.0044  1.0000  -7.2621   0.0000   0.2065
  13.900   1.0677   0.05816   0.05535   0.0274  0.0044  1.0000  -7.2982   0.0000   0.2067
  14.000   1.0664   0.05955   0.05676   0.0269  0.0044  1.0000  -7.3304   0.0000   0.2069
  14.100   1.0652   0.06092   0.05816   0.0265  0.0043  1.0000  -7.3635   0.0000   0.2072
  14.200   1.0636   0.06236   0.05963   0.0259  0.0043  1.0000  -7.3916   0.0000   0.2075
  14.300   1.0620   0.06379   0.06110   0.0254  0.0043  1.0000  -7.4201   0.0000   0.2078
  14.400   1.0605   0.06528   0.06262   0.0248  0.0043  1.0000  -7.4477   0.0000   0.2081
  14.500   1.0587   0.06683   0.06420   0.0242  0.0042  1.0000  -7.4726   0.0000   0.2085
  14.600   1.0572   0.06837   0.06577   0.0235  0.0042  1.0000  -7.4990   0.0000   0.2088
  14.700   1.0552   0.07001   0.06745   0.0228  0.0042  1.0000  -7.5199   0.0000   0.2093
  14.800   1.0533   0.07163   0.06910   0.0221  0.0042  1.0000  -7.5422   0.0000   0.2097
  14.900   1.0513   0.07330   0.07080   0.0214  0.0042  1.0000  -7.5618   0.0000   0.2102
  15.000   1.0489   0.07500   0.07254   0.0207  0.0041  1.0000  -7.5784   0.0000   0.2107
  15.100   1.0468   0.07669   0.07425   0.0199  0.0041  1.0000  -7.5964   0.0000   0.2111
  15.200   1.0441   0.07849   0.07608   0.0191  0.0041  1.0000  -7.6082   0.0000   0.2117
  15.300   1.0417   0.08026   0.07789   0.0183  0.0041  1.0000  -7.6217   0.0000   0.2122
  15.400   1.0389   0.08209   0.07976   0.0175  0.0041  1.0000  -7.6317   0.0000   0.2128
  15.500   1.0359   0.08399   0.08168   0.0166  0.0041  1.0000  -7.6385   0.0000   0.2134
  15.600   1.0331   0.08585   0.08358   0.0158  0.0040  1.0000  -7.6465   0.0000   0.2140
  15.700   1.0295   0.08784   0.08561   0.0148  0.0040  1.0000  -7.6459   0.0000   0.2147
  15.800   1.0262   0.08980   0.08760   0.0139  0.0040  1.0000  -7.6477   0.0000   0.2153
  15.900   1.0224   0.09185   0.08969   0.0130  0.0040  1.0000  -7.6442   0.0000   0.2161
  16.000   1.0185   0.09395   0.09181   0.0120  0.0040  1.0000  -7.6379   0.0000   0.2168
  16.100   1.0146   0.09604   0.09394   0.0110  0.0040  1.0000  -7.6317   0.0000   0.2175
  16.200   1.0100   0.09827   0.09621   0.0100  0.0040  1.0000  -7.6168   0.0000   0.2184
  16.300   1.0056   0.10042   0.09839   0.0090  0.0040  1.0000  -7.6047   0.0000   0.2191
  16.400   1.0004   0.10275   0.10075   0.0080  0.0040  1.0000  -7.5822   0.0000   0.2200
  16.500   0.9954   0.10503   0.10307   0.0070  0.0040  1.0000  -7.5616   0.0000   0.2208
  16.600   0.9898   0.10742   0.10550   0.0059  0.0039  1.0000  -7.5336   0.0000   0.2216
  16.700   0.9840   0.10984   0.10795   0.0049  0.0039  1.0000  -7.5032   0.0000   0.2225
  16.800   0.9779   0.11228   0.11043   0.0039  0.0039  1.0000  -7.4691   0.0000   0.2233
  16.900   0.9712   0.11479   0.11297   0.0029  0.0039  1.0000  -7.4276   0.0000   0.2242
  17.000   0.9644   0.11725   0.11547   0.0020  0.0039  1.0000  -7.3861   0.0000   0.2249
  17.100   0.9566   0.11982   0.11808   0.0012  0.0039  1.0000  -7.3337   0.0000   0.2257
  17.200   0.9489   0.12225   0.12053   0.0005  0.0039  1.0000  -7.2840   0.0000   0.2263
  17.300   0.9397   0.12469   0.12301   0.0001  0.0039  1.0000  -7.2209   0.0000   0.2266
  17.400   0.9300   0.12665   0.12499   0.0003  0.0039  1.0000  -7.1630   0.0000   0.2263
  17.500   0.9135   0.12624   0.12458   0.0044  0.0040  1.0000  -7.0971   0.0000   0.2216
  17.600   0.9030   0.12839   0.12675   0.0045  0.0040  1.0000  -7.0265   0.0000   0.2214
  17.700   0.8955   0.13180   0.13020   0.0026  0.0040  1.0000  -6.9523   0.0000   0.2234
  17.800   0.8878   0.13564   0.13409   0.0002  0.0040  1.0000  -6.8664   0.0000   0.2260
  17.900   0.8794   0.13997   0.13847  -0.0026  0.0040  1.0000  -6.7615   0.0000   0.2292
  18.000   0.8706   0.14467   0.14322  -0.0058  0.0040  1.0000  -6.6432   0.0000   0.2329
  18.100   0.8610   0.14991   0.14852  -0.0094  0.0040  1.0000  -6.5026   0.0000   0.2373
  18.200   0.8500   0.15590   0.15457  -0.0138  0.0041  1.0000  -6.3279   0.0000   0.2427
  18.300   0.8367   0.16308   0.16183  -0.0193  0.0041  1.0000  -6.0965   0.0000   0.2497
  18.400   0.8187   0.17246   0.17130  -0.0268  0.0042  1.0000  -5.7514   0.0000   0.2600
  18.800   0.7391   0.21609   0.21521  -0.0662  0.0037  1.0000  -3.0070   0.0000   0.3216
  18.900   0.7408   0.21808   0.21720  -0.0678  0.0036  1.0000  -2.9834   0.0000   0.3235
  19.000   0.7426   0.22000   0.21912  -0.0693  0.0035  1.0000  -2.9675   0.0000   0.3253
  19.100   0.7446   0.22186   0.22098  -0.0707  0.0035  1.0000  -2.9574   0.0000   0.3269
  19.200   0.7467   0.22367   0.22280  -0.0721  0.0034  1.0000  -2.9520   0.0000   0.3284
  19.300   0.7487   0.22547   0.22460  -0.0735  0.0034  1.0000  -2.9481   0.0000   0.3300
  19.400   0.7509   0.22724   0.22638  -0.0749  0.0033  1.0000  -2.9469   0.0000   0.3314
  19.500   0.7530   0.22899   0.22813  -0.0762  0.0033  1.0000  -2.9483   0.0000   0.3328
  19.600   0.7553   0.23071   0.22986  -0.0775  0.0033  1.0000  -2.9522   0.0000   0.3341
  19.700   0.7575   0.23242   0.23156  -0.0788  0.0032  1.0000  -2.9581   0.0000   0.3354
  19.800   0.7598   0.23411   0.23325  -0.0801  0.0032  1.0000  -2.9658   0.0000   0.3366
  19.900   0.7621   0.23578   0.23493  -0.0813  0.0032  1.0000  -2.9749   0.0000   0.3378
  20.000   0.7641   0.23761   0.23676  -0.0826  0.0031  1.0000  -2.9710   0.0000   0.3392
  20.100   0.7661   0.23947   0.23863  -0.0839  0.0031  1.0000  -2.9634   0.0000   0.3405
  20.200   0.7678   0.24146   0.24062  -0.0853  0.0031  1.0000  -2.9448   0.0000   0.3420
  20.400   0.8596   0.21054   0.20953  -0.0602  0.0032  1.0000  -4.0915   0.0000   0.2960
  20.500   0.8614   0.21184   0.21083  -0.0610  0.0032  1.0000  -4.0901   0.0000   0.2966
  20.600   0.8631   0.21315   0.21214  -0.0619  0.0031  1.0000  -4.0874   0.0000   0.2973
  20.700   0.8646   0.21451   0.21349  -0.0627  0.0031  1.0000  -4.0774   0.0000   0.2980


