xflr5 v6.47

 Calculated polar for: 763ER

 1 1 Reynolds number fixed          Mach number fixed         

 xtrf =   1.000 (top)        1.000 (bottom)
 Mach =   0.000     Re =     2.000 e 6     Ncrit =   9.000

  alpha     CL        CD       CDp       Cm    Top Xtr Bot Xtr   Cpmin    Chinge    XCp    
 ------- -------- --------- --------- -------- ------- ------- -------- --------- ---------
 -25.000  -0.8555   0.35738   0.35657   0.1566  1.0000  0.0015  -1.5329   0.0000   0.4142
 -24.900  -0.8534   0.35535   0.35454   0.1558  1.0000  0.0016  -1.5346   0.0000   0.4138
 -24.800  -0.8510   0.35219   0.35139   0.1549  1.0000  0.0019  -1.6463   0.0000   0.4133
 -24.700  -0.8488   0.34953   0.34872   0.1540  1.0000  0.0019  -1.7039   0.0000   0.4128
 -24.600  -0.8467   0.34713   0.34632   0.1531  1.0000  0.0020  -1.7361   0.0000   0.4123
 -24.500  -0.8446   0.34483   0.34402   0.1523  1.0000  0.0020  -1.7592   0.0000   0.4118
 -24.400  -0.8425   0.34265   0.34183   0.1514  1.0000  0.0020  -1.7709   0.0000   0.4114
 -24.300  -0.8403   0.34048   0.33967   0.1505  1.0000  0.0020  -1.7813   0.0000   0.4109
 -24.200  -0.8381   0.33834   0.33753   0.1496  1.0000  0.0020  -1.7908   0.0000   0.4104
 -24.100  -0.8359   0.33620   0.33538   0.1487  1.0000  0.0020  -1.7991   0.0000   0.4100
 -24.000  -0.8337   0.33407   0.33325   0.1479  1.0000  0.0020  -1.8068   0.0000   0.4095
 -23.900  -0.8315   0.33194   0.33112   0.1470  1.0000  0.0020  -1.8141   0.0000   0.4091
 -23.800  -0.8293   0.32982   0.32900   0.1461  1.0000  0.0020  -1.8211   0.0000   0.4086
 -23.700  -0.8270   0.32770   0.32688   0.1452  1.0000  0.0020  -1.8280   0.0000   0.4081
 -23.600  -0.8248   0.32559   0.32476   0.1443  1.0000  0.0020  -1.8349   0.0000   0.4076
 -23.500  -0.8225   0.32348   0.32265   0.1433  1.0000  0.0020  -1.8417   0.0000   0.4071
 -23.400  -0.8202   0.32137   0.32054   0.1424  1.0000  0.0020  -1.8486   0.0000   0.4066
 -23.300  -0.8179   0.31927   0.31844   0.1415  1.0000  0.0020  -1.8553   0.0000   0.4061
 -23.200  -0.8156   0.31716   0.31633   0.1406  1.0000  0.0020  -1.8623   0.0000   0.4056
 -20.900  -0.8604   0.17871   0.17740   0.0470  1.0000  0.0067  -8.1264   0.0000   0.2798
 -20.800  -0.8719   0.17452   0.17317   0.0445  1.0000  0.0067  -8.4691   0.0000   0.2760
 -20.700  -0.8759   0.17207   0.17070   0.0429  1.0000  0.0067  -8.5910   0.0000   0.2740
 -20.600  -0.8830   0.16893   0.16753   0.0410  1.0000  0.0068  -8.7925   0.0000   0.2713
 -20.500  -0.8861   0.16671   0.16529   0.0396  1.0000  0.0068  -8.8793   0.0000   0.2696
 -20.400  -0.8891   0.16453   0.16309   0.0382  1.0000  0.0068  -8.9589   0.0000   0.2679
 -20.300  -0.8945   0.16183   0.16037   0.0365  1.0000  0.0068  -9.0971   0.0000   0.2658
 -20.200  -0.8974   0.15966   0.15818   0.0351  1.0000  0.0069  -9.1696   0.0000   0.2641
 -20.100  -0.9001   0.15757   0.15607   0.0337  1.0000  0.0069  -9.2312   0.0000   0.2626
 -20.000  -0.9036   0.15530   0.15378   0.0323  1.0000  0.0069  -9.3110   0.0000   0.2609
 -19.900  -0.9083   0.15278   0.15124   0.0307  1.0000  0.0069  -9.4167   0.0000   0.2590
 -19.800  -0.9111   0.15069   0.14912   0.0293  1.0000  0.0069  -9.4720   0.0000   0.2575
 -19.700  -0.9141   0.14853   0.14695   0.0279  1.0000  0.0069  -9.5311   0.0000   0.2560
 -19.600  -0.9198   0.14583   0.14423   0.0262  1.0000  0.0069  -9.6488   0.0000   0.2540
 -19.500  -0.9250   0.14328   0.14165   0.0246  1.0000  0.0070  -9.7502   0.0000   0.2521
 -19.400  -0.9305   0.14068   0.13903   0.0229  1.0000  0.0071  -9.8540   0.0000   0.2503
 -19.300  -0.9382   0.13763   0.13596   0.0209  1.0000  0.0071  -10.0019   0.0000   0.2480
 -19.200  -0.9448   0.13480   0.13311   0.0191  1.0000  0.0071  -10.1221   0.0000   0.2460
 -19.100  -0.9522   0.13184   0.13012   0.0172  1.0000  0.0072  -10.2535   0.0000   0.2439
 -19.000  -0.9619   0.12843   0.12668   0.0150  1.0000  0.0071  -10.4278   0.0000   0.2415
 -18.900  -0.9708   0.12521   0.12344   0.0129  1.0000  0.0071  -10.5785   0.0000   0.2393
 -18.800  -0.9823   0.12148   0.11967   0.0105  1.0000  0.0071  -10.7768   0.0000   0.2368
 -18.700  -0.9939   0.11776   0.11592   0.0081  1.0000  0.0071  -10.9703   0.0000   0.2344
 -18.600  -1.0064   0.11392   0.11204   0.0056  1.0000  0.0070  -11.1728   0.0000   0.2319
 -18.500  -1.0202   0.10985   0.10792   0.0030  1.0000  0.0070  -11.3926   0.0000   0.2294
 -18.400  -1.0468   0.10353   0.10155  -0.0011  1.0000  0.0069  -11.8386   0.0000   0.2254
 -18.300  -1.1320   0.08719   0.08503  -0.0118  1.0000  0.0068  -13.2897   0.0000   0.2158
 -18.200  -1.2138   0.07199   0.06961  -0.0216  1.0000  0.0066  -14.6162   0.0000   0.2085
 -18.100  -1.2550   0.06396   0.06145  -0.0267  1.0000  0.0065  -15.2247   0.0000   0.2051
 -18.000  -1.2820   0.05845   0.05584  -0.0302  1.0000  0.0064  -15.5880   0.0000   0.2031
 -17.900  -1.3024   0.05417   0.05147  -0.0329  1.0000  0.0064  -15.8336   0.0000   0.2017
 -17.800  -1.3184   0.05067   0.04790  -0.0349  1.0000  0.0064  -16.0037   0.0000   0.2006
 -17.700  -1.3317   0.04769   0.04485  -0.0366  1.0000  0.0063  -16.1258   0.0000   0.1999
 -17.600  -1.3431   0.04510   0.04221  -0.0379  1.0000  0.0063  -16.2131   0.0000   0.1994
 -17.500  -1.3531   0.04282   0.03986  -0.0390  1.0000  0.0063  -16.2754   0.0000   0.1990
 -17.400  -1.3621   0.04080   0.03779  -0.0398  1.0000  0.0063  -16.3172   0.0000   0.1988
 -17.300  -1.3702   0.03900   0.03594  -0.0403  1.0000  0.0063  -16.3426   0.0000   0.1988
 -17.200  -1.3775   0.03739   0.03428  -0.0406  1.0000  0.0064  -16.3537   0.0000   0.1990
 -17.100  -1.3842   0.03596   0.03280  -0.0407  1.0000  0.0064  -16.3524   0.0000   0.1993
 -17.000  -1.3904   0.03467   0.03147  -0.0406  1.0000  0.0064  -16.3402   0.0000   0.1997
 -16.900  -1.3961   0.03352   0.03027  -0.0404  1.0000  0.0064  -16.3190   0.0000   0.2002
 -16.800  -1.4013   0.03248   0.02919  -0.0399  1.0000  0.0064  -16.2891   0.0000   0.2008
 -16.700  -1.4060   0.03154   0.02821  -0.0393  1.0000  0.0064  -16.2513   0.0000   0.2015
 -16.600  -1.4103   0.03069   0.02733  -0.0386  1.0000  0.0065  -16.2065   0.0000   0.2023
 -16.500  -1.4142   0.02991   0.02651  -0.0378  1.0000  0.0065  -16.1545   0.0000   0.2032
 -16.400  -1.4176   0.02921   0.02576  -0.0369  1.0000  0.0065  -16.0955   0.0000   0.2041
 -16.300  -1.4208   0.02855   0.02508  -0.0359  1.0000  0.0065  -16.0320   0.0000   0.2050
 -16.200  -1.4237   0.02795   0.02444  -0.0348  1.0000  0.0065  -15.9644   0.0000   0.2060
 -16.100  -1.4259   0.02741   0.02387  -0.0336  1.0000  0.0066  -15.8881   0.0000   0.2070
 -16.000  -1.4283   0.02691   0.02333  -0.0324  1.0000  0.0066  -15.8127   0.0000   0.2081
 -15.900  -1.4298   0.02645   0.02284  -0.0311  1.0000  0.0066  -15.7266   0.0000   0.2092
 -15.800  -1.4316   0.02601   0.02237  -0.0297  1.0000  0.0066  -15.6432   0.0000   0.2104
 -15.700  -1.4329   0.02560   0.02193  -0.0284  1.0000  0.0067  -15.5522   0.0000   0.2115
 -15.600  -1.4338   0.02523   0.02152  -0.0269  1.0000  0.0067  -15.4577   0.0000   0.2127
 -15.500  -1.4352   0.02487   0.02113  -0.0253  1.0000  0.0067  -15.3672   0.0000   0.2140
 -15.400  -1.4353   0.02455   0.02078  -0.0239  1.0000  0.0067  -15.2626   0.0000   0.2152
 -15.300  -1.4351   0.02425   0.02045  -0.0224  1.0000  0.0068  -15.1543   0.0000   0.2164
 -15.200  -1.4355   0.02397   0.02015  -0.0207  1.0000  0.0068  -15.0522   0.0000   0.2177
 -15.100  -1.4369   0.02371   0.01987  -0.0188  1.0000  0.0068  -14.9603   0.0000   0.2192
 -15.000  -1.4376   0.02347   0.01959  -0.0170  1.0000  0.0068  -14.8616   0.0000   0.2206
 -14.900  -1.4346   0.02320   0.01930  -0.0159  1.0000  0.0069  -14.7240   0.0000   0.2215
 -14.800  -1.4303   0.02293   0.01901  -0.0150  1.0000  0.0069  -14.5738   0.0000   0.2223
 -14.700  -1.4255   0.02267   0.01872  -0.0141  1.0000  0.0069  -14.4187   0.0000   0.2230
 -14.600  -1.4203   0.02242   0.01845  -0.0133  1.0000  0.0069  -14.2592   0.0000   0.2237
 -14.500  -1.4146   0.02218   0.01819  -0.0126  1.0000  0.0069  -14.0964   0.0000   0.2244
 -14.400  -1.4123   0.02170   0.01766  -0.0114  1.0000  0.0071  -13.9779   0.0000   0.2253
 -14.300  -1.4088   0.02128   0.01719  -0.0104  1.0000  0.0072  -13.8452   0.0000   0.2262
 -14.200  -1.4042   0.02089   0.01677  -0.0096  1.0000  0.0074  -13.7014   0.0000   0.2269
 -14.100  -1.3988   0.02055   0.01640  -0.0088  1.0000  0.0075  -13.5482   0.0000   0.2276
 -14.000  -1.3928   0.02024   0.01607  -0.0081  1.0000  0.0076  -13.3882   0.0000   0.2282
 -13.900  -1.3864   0.01996   0.01576  -0.0075  1.0000  0.0077  -13.2233   0.0000   0.2288
 -13.800  -1.3795   0.01969   0.01548  -0.0069  1.0000  0.0078  -13.0553   0.0000   0.2294
 -13.700  -1.3724   0.01943   0.01521  -0.0063  1.0000  0.0080  -12.8850   0.0000   0.2299
 -13.600  -1.3651   0.01919   0.01495  -0.0058  1.0000  0.0081  -12.7135   0.0000   0.2304
 -13.500  -1.3576   0.01895   0.01469  -0.0053  1.0000  0.0082  -12.5411   0.0000   0.2309
 -13.400  -1.3499   0.01871   0.01444  -0.0048  1.0000  0.0083  -12.3682   0.0000   0.2314
 -13.300  -1.3421   0.01848   0.01419  -0.0043  1.0000  0.0083  -12.1951   0.0000   0.2319
 -13.200  -1.3341   0.01826   0.01395  -0.0039  1.0000  0.0084  -12.0215   0.0000   0.2324
 -13.100  -1.3260   0.01805   0.01372  -0.0035  1.0000  0.0085  -11.8476   0.0000   0.2328
 -13.000  -1.3178   0.01783   0.01349  -0.0030  1.0000  0.0086  -11.6735   0.0000   0.2333
 -12.900  -1.3094   0.01763   0.01326  -0.0026  1.0000  0.0087  -11.4995   0.0000   0.2338
 -12.800  -1.3009   0.01743   0.01304  -0.0022  1.0000  0.0088  -11.3256   0.0000   0.2342
 -12.700  -1.2924   0.01723   0.01282  -0.0018  1.0000  0.0089  -11.1519   0.0000   0.2346
 -12.600  -1.2837   0.01703   0.01261  -0.0015  1.0000  0.0090  -10.9783   0.0000   0.2351
 -12.500  -1.2749   0.01685   0.01241  -0.0011  1.0000  0.0091  -10.8048   0.0000   0.2355
 -12.400  -1.2660   0.01667   0.01221  -0.0008  1.0000  0.0091  -10.6315   0.0000   0.2359
 -12.300  -1.2570   0.01649   0.01201  -0.0004  1.0000  0.0092  -10.4583   0.0000   0.2363
 -12.200  -1.2479   0.01632   0.01183  -0.0001  1.0000  0.0092  -10.2853   0.0000   0.2367
 -12.100  -1.2387   0.01616   0.01165   0.0002  1.0000  0.0093  -10.1125   0.0000   0.2371
 -12.000  -1.2294   0.01599   0.01147   0.0005  1.0000  0.0093  -9.9412   0.0000   0.2375
 -11.900  -1.2217   0.01564   0.01108   0.0010  1.0000  0.0096  -9.7916   0.0000   0.2380
 -11.800  -1.2134   0.01536   0.01077   0.0014  1.0000  0.0098  -9.6348   0.0000   0.2385
 -11.700  -1.2046   0.01512   0.01052   0.0018  1.0000  0.0101  -9.4735   0.0000   0.2390
 -11.600  -1.1955   0.01491   0.01030   0.0021  1.0000  0.0103  -9.3099   0.0000   0.2394
 -11.500  -1.1863   0.01472   0.01009   0.0024  1.0000  0.0105  -9.1453   0.0000   0.2398
 -11.400  -1.1769   0.01454   0.00990   0.0027  1.0000  0.0106  -8.9806   0.0000   0.2402
 -11.300  -1.1674   0.01436   0.00972   0.0030  1.0000  0.0108  -8.8376   0.0000   0.2406
 -11.200  -1.1579   0.01420   0.00955   0.0032  1.0000  0.0110  -8.7046   0.0000   0.2410
 -11.100  -1.1482   0.01404   0.00938   0.0035  1.0000  0.0112  -8.5714   0.0000   0.2414
 -11.000  -1.1384   0.01389   0.00922   0.0037  1.0000  0.0113  -8.4381   0.0000   0.2418
 -10.900  -1.1286   0.01375   0.00907   0.0040  1.0000  0.0115  -8.3050   0.0000   0.2421
 -10.800  -1.1187   0.01361   0.00892   0.0042  1.0000  0.0117  -8.1721   0.0000   0.2425
 -10.700  -1.1087   0.01349   0.00878   0.0044  1.0000  0.0118  -8.0391   0.0000   0.2428
 -10.600  -1.0986   0.01337   0.00866   0.0046  1.0000  0.0119  -7.9057   0.0000   0.2432
 -10.500  -1.0883   0.01327   0.00855   0.0048  1.0000  0.0120  -7.7719   0.0000   0.2435
 -10.400  -1.0786   0.01310   0.00837   0.0050  1.0000  0.0123  -7.6456   0.0000   0.2439
 -10.300  -1.0694   0.01284   0.00809   0.0053  1.0000  0.0128  -7.5287   0.0000   0.2444
 -10.200  -1.0597   0.01266   0.00790   0.0056  1.0000  0.0132  -7.4049   0.0000   0.2448
 -10.100  -1.0508   0.01306   0.00772   0.0061  0.7274  0.0135  -7.2848   0.0000   0.2454
 -10.000  -1.0411   0.01300   0.00757   0.0063  0.6945  0.0138  -7.1608   0.0000   0.2458
  -9.900  -1.0311   0.01291   0.00742   0.0065  0.6763  0.0140  -7.0363   0.0000   0.2462
  -9.800  -1.0210   0.01281   0.00728   0.0067  0.6633  0.0143  -6.9122   0.0000   0.2466
  -9.700  -1.0108   0.01271   0.00714   0.0069  0.6525  0.0145  -6.7887   0.0000   0.2470
  -9.600  -1.0006   0.01261   0.00700   0.0071  0.6438  0.0147  -6.6656   0.0000   0.2473
  -9.400  -0.9799   0.01243   0.00675   0.0074  0.6286  0.0151  -6.4208   0.0000   0.2481
  -9.300  -0.9695   0.01234   0.00663   0.0076  0.6216  0.0152  -6.2988   0.0000   0.2484
  -9.200  -0.9594   0.01219   0.00645   0.0078  0.6159  0.0155  -6.1829   0.0000   0.2489
  -9.100  -0.9494   0.01201   0.00624   0.0080  0.6099  0.0161  -6.0703   0.0000   0.2493
  -9.000  -0.9393   0.01187   0.00608   0.0082  0.6046  0.0166  -5.9544   0.0000   0.2497
  -8.900  -0.9289   0.01175   0.00595   0.0084  0.5994  0.0170  -5.8450   0.0000   0.2501
  -8.800  -0.9185   0.01164   0.00582   0.0086  0.5938  0.0174  -5.7367   0.0000   0.2505
  -8.700  -0.9080   0.01154   0.00570   0.0087  0.5890  0.0177  -5.6286   0.0000   0.2509
  -8.600  -0.8975   0.01145   0.00558   0.0089  0.5837  0.0181  -5.5209   0.0000   0.2513
  -8.500  -0.8869   0.01136   0.00547   0.0090  0.5785  0.0184  -5.4135   0.0000   0.2516
  -8.400  -0.8762   0.01129   0.00537   0.0091  0.5741  0.0187  -5.3061   0.0000   0.2520
  -8.300  -0.8655   0.01121   0.00527   0.0093  0.5692  0.0189  -5.1996   0.0000   0.2524
  -8.200  -0.8553   0.01105   0.00509   0.0095  0.5645  0.0198  -5.1005   0.0000   0.2529
  -8.100  -0.8448   0.01093   0.00496   0.0096  0.5603  0.0205  -4.9980   0.0000   0.2533
  -8.000  -0.8342   0.01082   0.00485   0.0098  0.5556  0.0211  -4.8951   0.0000   0.2537
  -7.900  -0.8235   0.01073   0.00474   0.0099  0.5507  0.0216  -4.7926   0.0000   0.2541
  -7.800  -0.8128   0.01065   0.00464   0.0100  0.5466  0.0221  -4.6906   0.0000   0.2545
  -7.700  -0.8020   0.01058   0.00454   0.0101  0.5422  0.0225  -4.5888   0.0000   0.2549
  -7.600  -0.7911   0.01052   0.00446   0.0102  0.5376  0.0228  -4.4875   0.0000   0.2553
  -7.500  -0.7806   0.01039   0.00431   0.0104  0.5336  0.0238  -4.3913   0.0000   0.2558
  -7.400  -0.7699   0.01028   0.00419   0.0105  0.5297  0.0248  -4.2937   0.0000   0.2563
  -7.300  -0.7592   0.01019   0.00409   0.0107  0.5253  0.0255  -4.1961   0.0000   0.2567
  -7.100  -0.7375   0.01004   0.00391   0.0109  0.5172  0.0269  -4.0021   0.0000   0.2576
  -7.000  -0.7265   0.00998   0.00384   0.0110  0.5131  0.0273  -3.9131   0.0000   0.2580
  -6.900  -0.7159   0.00987   0.00371   0.0111  0.5089  0.0288  -3.8278   0.0000   0.2585
  -6.800  -0.7051   0.00978   0.00362   0.0112  0.5052  0.0300  -3.7414   0.0000   0.2590
  -6.700  -0.6942   0.00970   0.00354   0.0113  0.5017  0.0310  -3.6550   0.0000   0.2595
  -6.600  -0.6832   0.00964   0.00346   0.0114  0.4978  0.0319  -3.5690   0.0000   0.2600
  -6.500  -0.6723   0.00957   0.00336   0.0115  0.4937  0.0329  -3.4845   0.0000   0.2605
  -6.400  -0.6614   0.00948   0.00327   0.0116  0.4901  0.0344  -3.4013   0.0000   0.2610
  -6.300  -0.6505   0.00939   0.00319   0.0117  0.4867  0.0358  -3.3180   0.0000   0.2615
  -6.200  -0.6395   0.00933   0.00311   0.0118  0.4829  0.0369  -3.2349   0.0000   0.2620
  -6.100  -0.6285   0.00928   0.00304   0.0119  0.4791  0.0379  -3.1526   0.0000   0.2626
  -6.000  -0.6176   0.00919   0.00295   0.0120  0.4759  0.0400  -3.0721   0.0000   0.2631
  -5.900  -0.6066   0.00911   0.00288   0.0121  0.4727  0.0417  -2.9915   0.0000   0.2637
  -5.800  -0.5955   0.00906   0.00281   0.0122  0.4692  0.0431  -2.9111   0.0000   0.2643
  -5.700  -0.5846   0.00899   0.00273   0.0122  0.4655  0.0452  -2.8362   0.0000   0.2649
  -5.600  -0.5736   0.00891   0.00266   0.0123  0.4620  0.0473  -2.7643   0.0000   0.2655
  -5.500  -0.5625   0.00885   0.00259   0.0124  0.4591  0.0491  -2.6925   0.0000   0.2661
  -5.400  -0.5514   0.00879   0.00252   0.0125  0.4559  0.0511  -2.6215   0.0000   0.2668
  -5.300  -0.5404   0.00872   0.00246   0.0126  0.4526  0.0536  -2.5514   0.0000   0.2675
  -5.100  -0.5182   0.00861   0.00233   0.0127  0.4464  0.0580  -2.4124   0.0000   0.2689
  -5.000  -0.5071   0.00853   0.00227   0.0128  0.4435  0.0611  -2.3440   0.0000   0.2696
  -4.900  -0.4960   0.00848   0.00222   0.0128  0.4403  0.0635  -2.2759   0.0000   0.2704
  -4.800  -0.4849   0.00842   0.00216   0.0129  0.4370  0.0665  -2.2088   0.0000   0.2712
  -4.700  -0.4738   0.00837   0.00210   0.0130  0.4337  0.0694  -2.1469   0.0000   0.2720
  -4.600  -0.4626   0.00832   0.00205   0.0130  0.4314  0.0716  -2.0859   0.0000   0.2728
  -4.500  -0.4514   0.00826   0.00199   0.0131  0.4288  0.0751  -2.0260   0.0000   0.2737
  -4.400  -0.4403   0.00820   0.00194   0.0132  0.4259  0.0784  -1.9663   0.0000   0.2746
  -4.300  -0.4290   0.00816   0.00190   0.0132  0.4229  0.0812  -1.9071   0.0000   0.2756
  -4.200  -0.4179   0.00811   0.00185   0.0133  0.4197  0.0850  -1.8489   0.0000   0.2766
  -4.100  -0.4067   0.00806   0.00180   0.0133  0.4175  0.0880  -1.7907   0.0000   0.2777
  -4.000  -0.3954   0.00801   0.00176   0.0134  0.4150  0.0911  -1.7350   0.0000   0.2788
  -3.900  -0.3842   0.00796   0.00171   0.0134  0.4122  0.0951  -1.6829   0.0000   0.2800
  -3.800  -0.3730   0.00792   0.00167   0.0135  0.4095  0.0982  -1.6310   0.0000   0.2812
  -3.700  -0.3618   0.00787   0.00163   0.0135  0.4066  0.1027  -1.5799   0.0000   0.2825
  -3.600  -0.3506   0.00783   0.00159   0.0136  0.4043  0.1066  -1.5290   0.0000   0.2839
  -3.500  -0.3393   0.00778   0.00154   0.0136  0.4022  0.1104  -1.4786   0.0000   0.2853
  -3.400  -0.3281   0.00773   0.00150   0.0137  0.3998  0.1153  -1.4305   0.0000   0.2869
  -3.300  -0.3168   0.00769   0.00147   0.0137  0.3972  0.1197  -1.3850   0.0000   0.2885
  -3.200  -0.3056   0.00764   0.00143   0.0138  0.3945  0.1255  -1.3403   0.0000   0.2903
  -3.000  -0.2831   0.00754   0.00136   0.0138  0.3897  0.1366  -1.2516   0.0000   0.2943
  -2.900  -0.2718   0.00749   0.00133   0.0139  0.3878  0.1428  -1.2094   0.0000   0.2965
  -2.800  -0.2606   0.00744   0.00129   0.0139  0.3856  0.1500  -1.1696   0.0000   0.2989
  -2.700  -0.2494   0.00739   0.00126   0.0140  0.3833  0.1574  -1.1301   0.0000   0.3015
  -2.600  -0.2381   0.00734   0.00122   0.0140  0.3809  0.1650  -1.0910   0.0000   0.3043
  -2.500  -0.2269   0.00729   0.00119   0.0140  0.3782  0.1743  -1.0528   0.0000   0.3074
  -2.400  -0.2157   0.00723   0.00116   0.0141  0.3762  0.1840  -1.0175   0.0000   0.3109
  -2.300  -0.2045   0.00717   0.00113   0.0141  0.3744  0.1940  -0.9823   0.0000   0.3147
  -2.200  -0.1933   0.00711   0.00110   0.0142  0.3723  0.2050  -0.9476   0.0000   0.3189
  -2.100  -0.1821   0.00705   0.00107   0.0142  0.3702  0.2169  -0.9140   0.0000   0.3237
  -2.000  -0.1709   0.00699   0.00105   0.0142  0.3680  0.2292  -0.8824   0.0000   0.3291
  -1.900  -0.1597   0.00693   0.00102   0.0143  0.3657  0.2425  -0.8512   0.0000   0.3352
  -1.800  -0.1486   0.00687   0.00100   0.0143  0.3632  0.2568  -0.8202   0.0000   0.3422
  -1.700  -0.1374   0.00680   0.00097   0.0144  0.3618  0.2715  -0.7913   0.0000   0.3503
  -1.600  -0.1262   0.00673   0.00095   0.0144  0.3601  0.2866  -0.7630   0.0000   0.3599
  -1.500  -0.1150   0.00667   0.00093   0.0144  0.3581  0.3024  -0.7348   0.0000   0.3714
  -1.400  -0.1038   0.00661   0.00091   0.0145  0.3560  0.3180  -0.7081   0.0000   0.3853
  -1.300  -0.0926   0.00655   0.00089   0.0145  0.3538  0.3330  -0.6823   0.0000   0.4026
  -1.200  -0.0814   0.00651   0.00088   0.0145  0.3515  0.3480  -0.6568   0.0000   0.4246
  -1.100  -0.0702   0.00646   0.00087   0.0146  0.3493  0.3628  -0.6496   0.0000   0.4537
  -1.000  -0.0589   0.00641   0.00085   0.0146  0.3480  0.3769  -0.6615   0.0000   0.4941
  -0.900  -0.0476   0.00636   0.00084   0.0146  0.3464  0.3909  -0.6738   0.0000   0.5535
  -0.800  -0.0363   0.00631   0.00083   0.0147  0.3446  0.4047  -0.6860   0.0000   0.6499
  -0.700  -0.0251   0.00627   0.00082   0.0147  0.3426  0.4183  -0.6983   0.0000   0.8330
  -0.600  -0.0138   0.00623   0.00082   0.0147  0.3405  0.4310  -0.7106   0.0000   1.3166
  -0.500  -0.0025   0.00620   0.00081   0.0147  0.3383  0.4439  -0.7230   0.0000   6.2033
  -0.400   0.0088   0.00618   0.00081   0.0148  0.3359  0.4569  -0.7354   0.0000  -1.4325
  -0.300   0.0202   0.00614   0.00081   0.0148  0.3347  0.4695  -0.7478   0.0000  -0.4891
  -0.200   0.0315   0.00610   0.00080   0.0148  0.3332  0.4813  -0.7604   0.0000  -0.2249
  -0.100   0.0429   0.00607   0.00080   0.0148  0.3316  0.4932  -0.7729   0.0000  -0.1007
   0.000   0.0542   0.00604   0.00080   0.0149  0.3298  0.5061  -0.7859   0.0000  -0.0287
   0.100   0.0655   0.00601   0.00080   0.0149  0.3278  0.5190  -0.7990   0.0000   0.0182
   0.200   0.0768   0.00599   0.00080   0.0149  0.3258  0.5316  -0.8121   0.0000   0.0514
   0.300   0.0881   0.00597   0.00080   0.0149  0.3234  0.5439  -0.8252   0.0000   0.0760
   0.400   0.0995   0.00594   0.00080   0.0150  0.3219  0.5571  -0.8385   0.0000   0.0951
   0.500   0.1108   0.00590   0.00081   0.0150  0.3205  0.5715  -0.8517   0.0000   0.1102
   0.600   0.1220   0.00586   0.00081   0.0150  0.3189  0.5868  -0.8650   0.0000   0.1224
   0.700   0.1332   0.00581   0.00081   0.0151  0.3171  0.6043  -0.8783   0.0000   0.1324
   0.800   0.1444   0.00576   0.00081   0.0151  0.3153  0.6244  -0.8915   0.0000   0.1407
   0.900   0.1554   0.00570   0.00082   0.0152  0.3135  0.6475  -0.9047   0.0000   0.1477
   1.000   0.1663   0.00565   0.00083   0.0153  0.3114  0.6735  -0.9182   0.0000   0.1536
   1.100   0.1772   0.00558   0.00084   0.0154  0.3095  0.6996  -0.9319   0.0000   0.1586
   1.200   0.1881   0.00551   0.00085   0.0155  0.3083  0.7259  -0.9457   0.0000   0.1630
   1.300   0.1990   0.00544   0.00086   0.0156  0.3069  0.7507  -0.9595   0.0000   0.1668
   1.400   0.2098   0.00539   0.00088   0.0158  0.3052  0.7737  -0.9733   0.0000   0.1701
   1.500   0.2206   0.00533   0.00089   0.0160  0.3034  0.7955  -0.9871   0.0000   0.1730
   1.600   0.2312   0.00529   0.00091   0.0162  0.3016  0.8155  -1.0009   0.0000   0.1755
   1.700   0.2421   0.00527   0.00093   0.0163  0.2996  0.8334  -1.0148   0.0000   0.1779
   1.800   0.2526   0.00524   0.00095   0.0166  0.2974  0.8522  -1.0285   0.0000   0.1797
   1.900   0.2632   0.00521   0.00097   0.0168  0.2962  0.8681  -1.0424   0.0000   0.1815
   2.000   0.2738   0.00518   0.00100   0.0170  0.2950  0.8841  -1.0563   0.0000   0.1830
   2.100   0.2845   0.00517   0.00102   0.0173  0.2936  0.8974  -1.0707   0.0000   0.1845
   2.200   0.2949   0.00516   0.00104   0.0176  0.2921  0.9121  -1.0851   0.0000   0.1856
   2.300   0.3060   0.00517   0.00107   0.0177  0.2903  0.9223  -1.1001   0.0000   0.1873
   2.400   0.3171   0.00518   0.00110   0.0178  0.2885  0.9335  -1.1151   0.0000   0.1889
   2.500   0.3286   0.00520   0.00113   0.0179  0.2864  0.9443  -1.1305   0.0000   0.1907
   2.600   0.3403   0.00523   0.00116   0.0179  0.2843  0.9526  -1.1460   0.0000   0.1926
   2.700   0.3518   0.00525   0.00118   0.0179  0.2832  0.9583  -1.1615   0.0000   0.1941
   2.800   0.3642   0.00527   0.00120   0.0177  0.2818  0.9630  -1.1776   0.0000   0.1963
   2.900   0.3788   0.00529   0.00122   0.0171  0.2802  0.9679  -1.1956   0.0000   0.1999
   3.000   0.3933   0.00532   0.00125   0.0164  0.2785  0.9718  -1.2136   0.0000   0.2032
   3.100   0.4075   0.00535   0.00127   0.0158  0.2767  0.9752  -1.2314   0.0000   0.2061
   3.200   0.4214   0.00539   0.00130   0.0153  0.2743  0.9781  -1.2497   0.0000   0.2086
   3.300   0.4351   0.00543   0.00132   0.0148  0.2714  0.9806  -1.2680   0.0000   0.2109
   3.400   0.4488   0.00546   0.00134   0.0143  0.2686  0.9827  -1.2863   0.0000   0.2129
   3.500   0.4622   0.00550   0.00136   0.0139  0.2647  0.9847  -1.3046   0.0000   0.2148
   3.600   0.4755   0.00556   0.00140   0.0134  0.2603  0.9864  -1.3226   0.0000   0.2164
   3.800   0.5020   0.00562   0.00145   0.0127  0.2559  0.9894  -1.3589   0.0000   0.2194
   3.900   0.5151   0.00566   0.00148   0.0123  0.2537  0.9907  -1.3771   0.0000   0.2207
   4.000   0.5282   0.00571   0.00151   0.0119  0.2512  0.9919  -1.3952   0.0000   0.2219
   4.100   0.5413   0.00576   0.00154   0.0116  0.2481  0.9930  -1.4133   0.0000   0.2231
   4.200   0.5543   0.00580   0.00157   0.0112  0.2444  0.9939  -1.4316   0.0000   0.2242
   4.300   0.5673   0.00587   0.00161   0.0108  0.2392  0.9947  -1.4504   0.0000   0.2252
   4.400   0.5802   0.00592   0.00165   0.0105  0.2351  0.9954  -1.4694   0.0000   0.2262
   4.500   0.5932   0.00598   0.00169   0.0101  0.2306  0.9960  -1.5210   0.0000   0.2271
   4.600   0.6060   0.00606   0.00174   0.0098  0.2254  0.9966  -1.6153   0.0000   0.2280
   4.700   0.6189   0.00612   0.00178   0.0094  0.2201  0.9971  -1.7113   0.0000   0.2288
   4.800   0.6317   0.00621   0.00184   0.0091  0.2131  0.9976  -1.8072   0.0000   0.2296
   4.900   0.6444   0.00632   0.00191   0.0088  0.2047  0.9980  -1.9035   0.0000   0.2303
   5.000   0.6569   0.00647   0.00199   0.0084  0.1927  0.9983  -1.9983   0.0000   0.2310
   5.100   0.6688   0.00675   0.00215   0.0081  0.1683  0.9987  -2.0873   0.0000   0.2317
   5.200   0.6753   0.00865   0.00334   0.0078  0.0119  0.9992  -2.1334   0.0000   0.2322
   5.300   0.6877   0.00884   0.00351   0.0075  0.0050  0.9994  -2.1777   0.0000   0.2327
   5.400   0.7003   0.00893   0.00361   0.0072  0.0047  0.9996  -2.2622   0.0000   0.2333
   5.500   0.7130   0.00903   0.00371   0.0069  0.0044  0.9998  -2.3473   0.0000   0.2338
   5.600   0.7257   0.00913   0.00381   0.0066  0.0042  1.0000  -2.4350   0.0000   0.2343
   5.700   0.7356   0.00923   0.00391   0.0069  0.0041  1.0000  -2.5142   0.0000   0.2340
   5.800   0.7451   0.00933   0.00402   0.0072  0.0040  1.0000  -2.5931   0.0000   0.2336
   5.900   0.7546   0.00943   0.00413   0.0076  0.0039  1.0000  -2.6730   0.0000   0.2332
   6.000   0.7641   0.00954   0.00424   0.0079  0.0038  1.0000  -2.7541   0.0000   0.2328
   6.100   0.7738   0.00965   0.00436   0.0082  0.0037  1.0000  -2.8360   0.0000   0.2324
   6.200   0.7834   0.00977   0.00449   0.0085  0.0037  1.0000  -2.9188   0.0000   0.2321
   6.300   0.7932   0.00989   0.00462   0.0088  0.0036  1.0000  -3.0025   0.0000   0.2317
   6.400   0.8029   0.01001   0.00475   0.0091  0.0036  1.0000  -3.0870   0.0000   0.2314
   6.500   0.8126   0.01014   0.00489   0.0093  0.0036  1.0000  -3.1722   0.0000   0.2311
   6.600   0.8224   0.01028   0.00504   0.0096  0.0035  1.0000  -3.2581   0.0000   0.2308
   6.700   0.8321   0.01042   0.00520   0.0099  0.0035  1.0000  -3.3446   0.0000   0.2305
   6.800   0.8418   0.01057   0.00536   0.0102  0.0035  1.0000  -3.4317   0.0000   0.2303
   6.900   0.8515   0.01072   0.00552   0.0104  0.0035  1.0000  -3.5193   0.0000   0.2300
   7.000   0.8611   0.01088   0.00570   0.0107  0.0035  1.0000  -3.6072   0.0000   0.2297
   7.100   0.8707   0.01104   0.00588   0.0110  0.0035  1.0000  -3.6955   0.0000   0.2294
   7.200   0.8803   0.01121   0.00607   0.0112  0.0035  1.0000  -3.7839   0.0000   0.2292
   7.300   0.8898   0.01139   0.00626   0.0115  0.0034  1.0000  -3.8725   0.0000   0.2289
   7.400   0.8992   0.01158   0.00647   0.0118  0.0034  1.0000  -3.9611   0.0000   0.2286
   7.500   0.9086   0.01177   0.00668   0.0121  0.0034  1.0000  -4.0497   0.0000   0.2283
   7.600   0.9179   0.01197   0.00690   0.0124  0.0035  1.0000  -4.1379   0.0000   0.2280
   7.700   0.9271   0.01218   0.00714   0.0127  0.0035  1.0000  -4.2258   0.0000   0.2277
   7.800   0.9361   0.01240   0.00738   0.0130  0.0035  1.0000  -4.3131   0.0000   0.2274
   7.900   0.9451   0.01263   0.00764   0.0133  0.0035  1.0000  -4.3995   0.0000   0.2271
   8.000   0.9540   0.01288   0.00790   0.0136  0.0035  1.0000  -4.4848   0.0000   0.2268
   8.100   0.9627   0.01313   0.00819   0.0140  0.0035  1.0000  -4.5687   0.0000   0.2264
   8.200   0.9713   0.01340   0.00849   0.0143  0.0035  1.0000  -4.6507   0.0000   0.2261
   8.300   0.9797   0.01369   0.00881   0.0147  0.0035  1.0000  -4.7305   0.0000   0.2257
   8.400   0.9879   0.01400   0.00915   0.0151  0.0036  1.0000  -4.8076   0.0000   0.2253
   8.500   0.9958   0.01433   0.00952   0.0155  0.0036  1.0000  -4.8814   0.0000   0.2249
   8.600   1.0035   0.01469   0.00991   0.0159  0.0036  1.0000  -4.9515   0.0000   0.2245
   8.700   1.0108   0.01507   0.01033   0.0164  0.0037  1.0000  -5.0175   0.0000   0.2241
   8.800   1.0178   0.01548   0.01078   0.0169  0.0037  1.0000  -5.0793   0.0000   0.2236
   8.900   1.0243   0.01592   0.01126   0.0174  0.0038  1.0000  -5.1368   0.0000   0.2231
   9.000   1.0303   0.01639   0.01177   0.0179  0.0038  1.0000  -5.1905   0.0000   0.2225
   9.100   1.0358   0.01690   0.01231   0.0185  0.0039  1.0000  -5.2368   0.0000   0.2219
   9.200   1.0408   0.01743   0.01289   0.0192  0.0039  1.0000  -5.2784   0.0000   0.2212
   9.300   1.0451   0.01798   0.01348   0.0199  0.0040  1.0000  -5.3169   0.0000   0.2205
   9.400   1.0489   0.01855   0.01409   0.0206  0.0041  1.0000  -5.3524   0.0000   0.2197
   9.500   1.0520   0.01914   0.01472   0.0214  0.0041  1.0000  -5.3851   0.0000   0.2189
   9.600   1.0544   0.01974   0.01536   0.0223  0.0042  1.0000  -5.4148   0.0000   0.2180
   9.700   1.0562   0.02035   0.01600   0.0232  0.0043  1.0000  -5.4427   0.0000   0.2170
   9.800   1.0577   0.02094   0.01663   0.0242  0.0043  1.0000  -5.4771   0.0000   0.2160
   9.900   1.0589   0.02153   0.01724   0.0252  0.0044  1.0000  -5.5261   0.0000   0.2150
  10.000   1.0595   0.02212   0.01786   0.0261  0.0044  1.0000  -5.5737   0.0000   0.2139
  10.100   1.0595   0.02273   0.01850   0.0271  0.0044  1.0000  -5.6185   0.0000   0.2129
  10.200   1.0546   0.02327   0.01907   0.0289  0.0044  1.0000  -5.6390   0.0000   0.2109
  10.300   1.0508   0.02394   0.01978   0.0302  0.0045  1.0000  -5.6632   0.0000   0.2094
  10.400   1.0489   0.02505   0.02094   0.0298  0.0045  1.0000  -5.6899   0.0000   0.2096
  10.500   1.0489   0.02667   0.02261   0.0279  0.0045  1.0000  -5.7178   0.0000   0.2112
  10.600   1.0488   0.02794   0.02392   0.0271  0.0045  1.0000  -5.7503   0.0000   0.2118
  10.700   1.0485   0.02907   0.02507   0.0268  0.0045  1.0000  -5.7828   0.0000   0.2119
  10.800   1.0481   0.03012   0.02615   0.0267  0.0046  1.0000  -5.8135   0.0000   0.2118
  10.900   1.0474   0.03109   0.02714   0.0269  0.0046  1.0000  -5.8390   0.0000   0.2114
  11.000   1.0121   0.03206   0.02823   0.0274  0.0046  1.0000  -5.6912   0.0000   0.2100
  11.100   1.0118   0.03298   0.02917   0.0279  0.0047  1.0000  -5.7136   0.0000   0.2094
  11.400   1.0626   0.03366   0.02979   0.0314  0.0060  1.0000  -5.9648   0.0000   0.2069
  11.500   1.0649   0.03444   0.03059   0.0314  0.0060  1.0000  -6.0284   0.0000   0.2068
  11.600   1.0671   0.03523   0.03140   0.0314  0.0060  1.0000  -6.0922   0.0000   0.2067
  11.700   1.0693   0.03602   0.03221   0.0314  0.0059  1.0000  -6.1560   0.0000   0.2066
  11.800   1.0714   0.03682   0.03303   0.0314  0.0059  1.0000  -6.2197   0.0000   0.2065
  11.900   1.0734   0.03762   0.03385   0.0314  0.0059  1.0000  -6.2834   0.0000   0.2064
  12.000   1.0752   0.03843   0.03468   0.0313  0.0059  1.0000  -6.3465   0.0000   0.2063
  12.100   1.0771   0.03923   0.03550   0.0313  0.0058  1.0000  -6.4099   0.0000   0.2062
  12.200   1.0789   0.04005   0.03634   0.0313  0.0058  1.0000  -6.4730   0.0000   0.2061
  12.300   1.0806   0.04088   0.03719   0.0313  0.0058  1.0000  -6.5362   0.0000   0.2061
  12.400   1.0824   0.04171   0.03804   0.0313  0.0057  1.0000  -6.6001   0.0000   0.2060
  12.500   1.0841   0.04255   0.03890   0.0312  0.0057  1.0000  -6.6634   0.0000   0.2059
  12.600   1.0857   0.04340   0.03976   0.0312  0.0057  1.0000  -6.7270   0.0000   0.2058
  12.700   1.0874   0.04424   0.04062   0.0312  0.0057  1.0000  -6.7912   0.0000   0.2057
  12.800   1.0884   0.04518   0.04159   0.0310  0.0057  1.0000  -6.8475   0.0000   0.2057
  12.900   1.0892   0.04613   0.04256   0.0309  0.0056  1.0000  -6.9027   0.0000   0.2056
  13.000   1.0900   0.04708   0.04354   0.0308  0.0056  1.0000  -6.9576   0.0000   0.2056
  13.100   1.0905   0.04806   0.04454   0.0306  0.0056  1.0000  -7.0106   0.0000   0.2056
  13.200   1.0910   0.04905   0.04556   0.0304  0.0056  1.0000  -7.0631   0.0000   0.2056
  13.300   1.0915   0.05006   0.04659   0.0303  0.0055  1.0000  -7.1154   0.0000   0.2056
  13.400   1.0917   0.05110   0.04765   0.0301  0.0055  1.0000  -7.1655   0.0000   0.2056
  13.500   1.0919   0.05215   0.04873   0.0299  0.0055  1.0000  -7.2148   0.0000   0.2056
  13.600   1.0921   0.05320   0.04981   0.0297  0.0055  1.0000  -7.2636   0.0000   0.2056
  13.700   1.0921   0.05429   0.05093   0.0295  0.0054  1.0000  -7.3095   0.0000   0.2056
  13.800   1.0918   0.05540   0.05206   0.0293  0.0054  1.0000  -7.3533   0.0000   0.2056
  13.900   1.0915   0.05652   0.05320   0.0291  0.0054  1.0000  -7.3956   0.0000   0.2056
  14.000   1.0911   0.05767   0.05439   0.0289  0.0054  1.0000  -7.4343   0.0000   0.2056
  14.100   1.0903   0.05889   0.05564   0.0288  0.0053  1.0000  -7.4661   0.0000   0.2055
  14.200   1.0548   0.06590   0.06296   0.0295  0.0050  1.0000  -6.8561   0.0000   0.2039
  14.300   1.0507   0.06753   0.06463   0.0287  0.0050  1.0000  -6.8558   0.0000   0.2044
  14.400   1.0465   0.06920   0.06634   0.0278  0.0050  1.0000  -6.8545   0.0000   0.2050
  14.500   1.0422   0.07092   0.06810   0.0269  0.0050  1.0000  -6.8506   0.0000   0.2056
  14.600   1.0378   0.07267   0.06989   0.0259  0.0050  1.0000  -6.8457   0.0000   0.2062
  14.700   1.0332   0.07444   0.07171   0.0249  0.0050  1.0000  -6.8389   0.0000   0.2068
  14.800   1.0285   0.07627   0.07357   0.0239  0.0050  1.0000  -6.8301   0.0000   0.2075
  14.900   1.0240   0.07813   0.07548   0.0229  0.0050  1.0000  -6.8212   0.0000   0.2083
  15.000   1.0193   0.08007   0.07746   0.0217  0.0050  1.0000  -6.8096   0.0000   0.2091
  15.100   1.0147   0.08204   0.07947   0.0206  0.0050  1.0000  -6.7981   0.0000   0.2099
  15.200   1.0099   0.08407   0.08154   0.0194  0.0050  1.0000  -6.7840   0.0000   0.2109
  15.300   1.0052   0.08611   0.08362   0.0182  0.0050  1.0000  -6.7691   0.0000   0.2118
  15.400   1.0004   0.08820   0.08575   0.0169  0.0050  1.0000  -6.7525   0.0000   0.2128
  15.500   0.9956   0.09033   0.08792   0.0157  0.0050  1.0000  -6.7342   0.0000   0.2138
  15.600   0.9909   0.09248   0.09011   0.0143  0.0050  1.0000  -6.7155   0.0000   0.2149
  15.700   0.9860   0.09470   0.09237   0.0130  0.0050  1.0000  -6.6938   0.0000   0.2160
  15.800   0.9813   0.09692   0.09463   0.0116  0.0050  1.0000  -6.6727   0.0000   0.2172
  15.900   0.9764   0.09920   0.09695   0.0102  0.0050  1.0000  -6.6477   0.0000   0.2184
  16.000   0.9716   0.10147   0.09925   0.0088  0.0050  1.0000  -6.6234   0.0000   0.2197
  16.100   0.9667   0.10381   0.10164   0.0073  0.0050  1.0000  -6.5955   0.0000   0.2210
  16.200   0.9619   0.10615   0.10401   0.0058  0.0050  1.0000  -6.5679   0.0000   0.2224
  16.300   0.9571   0.10854   0.10644   0.0042  0.0050  1.0000  -6.5373   0.0000   0.2238
  16.400   0.9523   0.11095   0.10889   0.0027  0.0050  1.0000  -6.5059   0.0000   0.2253
  16.500   0.9476   0.11338   0.11136   0.0011  0.0050  1.0000  -6.4725   0.0000   0.2268
  16.600   0.9427   0.11585   0.11387  -0.0005  0.0050  1.0000  -6.4366   0.0000   0.2283
  16.700   0.9380   0.11832   0.11637  -0.0021  0.0050  1.0000  -6.4004   0.0000   0.2299
  16.800   0.9331   0.12087   0.11895  -0.0038  0.0050  1.0000  -6.3597   0.0000   0.2316
  16.900   0.9285   0.12339   0.12151  -0.0055  0.0050  1.0000  -6.3198   0.0000   0.2333
  17.000   0.9237   0.12600   0.12416  -0.0073  0.0050  1.0000  -6.2749   0.0000   0.2352
  17.100   0.9190   0.12860   0.12680  -0.0090  0.0050  1.0000  -6.2294   0.0000   0.2370
  17.200   0.9143   0.13124   0.12947  -0.0108  0.0050  1.0000  -6.1809   0.0000   0.2389
  17.300   0.9095   0.13393   0.13219  -0.0126  0.0050  1.0000  -6.1284   0.0000   0.2408
  17.400   0.9048   0.13660   0.13490  -0.0144  0.0050  1.0000  -6.0755   0.0000   0.2428
  17.500   0.9000   0.13938   0.13771  -0.0163  0.0050  1.0000  -6.0164   0.0000   0.2449
  17.600   0.8953   0.14216   0.14052  -0.0182  0.0050  1.0000  -5.9552   0.0000   0.2471
  17.700   0.8906   0.14496   0.14336  -0.0201  0.0050  1.0000  -5.8913   0.0000   0.2492
  17.800   0.8858   0.14788   0.14630  -0.0221  0.0050  1.0000  -5.8200   0.0000   0.2516
  17.900   0.8810   0.15080   0.14926  -0.0241  0.0050  1.0000  -5.7456   0.0000   0.2539
  18.000   0.8762   0.15375   0.15224  -0.0260  0.0050  1.0000  -5.6668   0.0000   0.2563
  18.100   0.8713   0.15682   0.15535  -0.0281  0.0050  1.0000  -5.5791   0.0000   0.2588
  18.200   0.8663   0.15997   0.15853  -0.0302  0.0050  1.0000  -5.4834   0.0000   0.2614
  18.300   0.8612   0.16321   0.16179  -0.0323  0.0050  1.0000  -5.3790   0.0000   0.2641
  18.400   0.8561   0.16656   0.16517  -0.0345  0.0050  1.0000  -5.2629   0.0000   0.2669
  18.500   0.8507   0.17007   0.16872  -0.0368  0.0050  1.0000  -5.1300   0.0000   0.2699
  18.600   0.8450   0.17382   0.17249  -0.0391  0.0050  1.0000  -4.9742   0.0000   0.2731
  18.700   0.8390   0.17785   0.17655  -0.0415  0.0050  1.0000  -4.7869   0.0000   0.2765
  18.800   0.8322   0.18246   0.18118  -0.0441  0.0050  1.0000  -4.5391   0.0000   0.2802
  18.900   0.8248   0.18777   0.18652  -0.0468  0.0050  1.0000  -4.1897   0.0000   0.2843
  19.000   0.8201   0.19272   0.19148  -0.0488  0.0050  1.0000  -3.7972   0.0000   0.2873
  19.100   0.8201   0.19521   0.19397  -0.0499  0.0050  1.0000  -3.6551   0.0000   0.2887
  19.200   0.8206   0.19741   0.19617  -0.0509  0.0050  1.0000  -3.5453   0.0000   0.2899
  19.300   0.8215   0.19944   0.19820  -0.0519  0.0050  1.0000  -3.4497   0.0000   0.2910
  19.400   0.8227   0.20136   0.20011  -0.0529  0.0050  1.0000  -3.3649   0.0000   0.2920
  19.500   0.8241   0.20317   0.20193  -0.0538  0.0050  1.0000  -3.2906   0.0000   0.2929
  19.600   0.8256   0.20490   0.20365  -0.0546  0.0050  1.0000  -3.2256   0.0000   0.2938
  19.700   0.8273   0.20656   0.20531  -0.0555  0.0049  1.0000  -3.1686   0.0000   0.2946
  19.800   0.8292   0.20815   0.20690  -0.0563  0.0049  1.0000  -3.1192   0.0000   0.2953
  19.900   0.8313   0.20969   0.20844  -0.0571  0.0049  1.0000  -3.0774   0.0000   0.2960
  20.000   0.8336   0.21113   0.20988  -0.0579  0.0049  1.0000  -3.0438   0.0000   0.2966
  20.100   0.8365   0.21250   0.21125  -0.0586  0.0048  1.0000  -3.0193   0.0000   0.2971
  20.200   0.8390   0.21455   0.21329  -0.0595  0.0045  1.0000  -2.9097   0.0000   0.2980
  20.300   0.8409   0.21617   0.21491  -0.0603  0.0043  1.0000  -2.8538   0.0000   0.2987
  20.400   0.8429   0.21763   0.21637  -0.0612  0.0042  1.0000  -2.8168   0.0000   0.2994
  20.500   0.8449   0.21903   0.21777  -0.0620  0.0041  1.0000  -2.7884   0.0000   0.3001
  20.600   0.8470   0.22038   0.21912  -0.0627  0.0040  1.0000  -2.7651   0.0000   0.3007
  20.700   0.8492   0.22170   0.22044  -0.0635  0.0039  1.0000  -2.7454   0.0000   0.3013
  20.800   0.8513   0.22298   0.22172  -0.0643  0.0039  1.0000  -2.7290   0.0000   0.3019
  20.900   0.8535   0.22424   0.22298  -0.0651  0.0038  1.0000  -2.7150   0.0000   0.3025
  21.000   0.8557   0.22547   0.22421  -0.0658  0.0038  1.0000  -2.7031   0.0000   0.3030
  21.100   0.8580   0.22669   0.22543  -0.0666  0.0037  1.0000  -2.6931   0.0000   0.3035
  21.200   0.8602   0.22788   0.22662  -0.0673  0.0037  1.0000  -2.6847   0.0000   0.3041
  21.300   0.8625   0.22906   0.22780  -0.0680  0.0036  1.0000  -2.6778   0.0000   0.3046
  21.400   0.8648   0.23023   0.22896  -0.0688  0.0036  1.0000  -2.6722   0.0000   0.3051
  21.500   0.8671   0.23138   0.23011  -0.0695  0.0036  1.0000  -2.6679   0.0000   0.3055
  21.600   0.8694   0.23251   0.23125  -0.0702  0.0035  1.0000  -2.6648   0.0000   0.3060
  21.700   0.8717   0.23363   0.23237  -0.0710  0.0035  1.0000  -2.6628   0.0000   0.3065
  21.800   0.8741   0.23474   0.23347  -0.0717  0.0035  1.0000  -2.6619   0.0000   0.3069
  21.900   0.8764   0.23583   0.23457  -0.0724  0.0034  1.0000  -2.6619   0.0000   0.3074
  22.000   0.8788   0.23691   0.23565  -0.0731  0.0034  1.0000  -2.6630   0.0000   0.3078
  22.100   0.8812   0.23798   0.23672  -0.0739  0.0034  1.0000  -2.6650   0.0000   0.3082
  22.200   0.8835   0.23904   0.23778  -0.0746  0.0034  1.0000  -2.6678   0.0000   0.3086
  22.300   0.8859   0.24009   0.23883  -0.0753  0.0033  1.0000  -2.6716   0.0000   0.3090
  22.400   0.8883   0.24112   0.23986  -0.0760  0.0033  1.0000  -2.6762   0.0000   0.3094
  22.500   0.8907   0.24215   0.24089  -0.0767  0.0033  1.0000  -2.6816   0.0000   0.3098
  22.600   0.8931   0.24316   0.24190  -0.0774  0.0033  1.0000  -2.6878   0.0000   0.3102
  22.700   0.8955   0.24417   0.24291  -0.0781  0.0033  1.0000  -2.6948   0.0000   0.3106
  22.800   0.8980   0.24516   0.24390  -0.0788  0.0032  1.0000  -2.7026   0.0000   0.3110
  22.900   0.9004   0.24614   0.24488  -0.0795  0.0032  1.0000  -2.7112   0.0000   0.3113
  23.000   0.9028   0.24711   0.24585  -0.0802  0.0032  1.0000  -2.7205   0.0000   0.3117
  23.100   0.9052   0.24808   0.24682  -0.0809  0.0032  1.0000  -2.7306   0.0000   0.3120
  23.200   0.9076   0.24903   0.24777  -0.0816  0.0032  1.0000  -2.7415   0.0000   0.3124
  23.300   0.9100   0.24997   0.24871  -0.0823  0.0032  1.0000  -2.7530   0.0000   0.3127
  23.400   0.9125   0.25090   0.24964  -0.0830  0.0031  1.0000  -2.7654   0.0000   0.3130
  23.500   0.9149   0.25182   0.25056  -0.0837  0.0031  1.0000  -2.7785   0.0000   0.3133
  23.600   0.9173   0.25273   0.25147  -0.0844  0.0031  1.0000  -2.7923   0.0000   0.3137
  23.700   0.9197   0.25363   0.25238  -0.0851  0.0031  1.0000  -2.8065   0.0000   0.3140
  23.800   0.9221   0.25455   0.25330  -0.0858  0.0031  1.0000  -2.8185   0.0000   0.3143
  23.900   0.9244   0.25546   0.25421  -0.0864  0.0031  1.0000  -2.8304   0.0000   0.3146
  24.000   0.9268   0.25637   0.25512  -0.0871  0.0031  1.0000  -2.8422   0.0000   0.3149
  24.100   0.9291   0.25728   0.25603  -0.0878  0.0030  1.0000  -2.8539   0.0000   0.3152
  24.200   0.9313   0.25827   0.25702  -0.0886  0.0030  1.0000  -2.8525   0.0000   0.3156
  24.300   0.9333   0.25930   0.25805  -0.0893  0.0030  1.0000  -2.8433   0.0000   0.3160


