xflr5 v6.47

 Calculated polar for: 763ER

 1 1 Reynolds number fixed          Mach number fixed         

 xtrf =   1.000 (top)        1.000 (bottom)
 Mach =   0.000     Re =     8.000 e 6     Ncrit =   9.000

  alpha     CL        CD       CDp       Cm    Top Xtr Bot Xtr   Cpmin    Chinge    XCp    
 ------- -------- --------- --------- -------- ------- ------- -------- --------- ---------
 -24.800  -0.9150   0.22314   0.22238   0.0763  1.0000  0.0027  -9.0917   0.0000   0.3025
 -24.700  -0.9142   0.22188   0.22112   0.0754  1.0000  0.0028  -9.1022   0.0000   0.3017
 -24.600  -0.9130   0.22072   0.21995   0.0746  1.0000  0.0028  -9.0973   0.0000   0.3010
 -24.500  -0.9117   0.21958   0.21881   0.0737  1.0000  0.0029  -9.0880   0.0000   0.3004
 -24.400  -0.9106   0.21839   0.21762   0.0729  1.0000  0.0029  -9.0840   0.0000   0.2997
 -24.200  -0.9178   0.21359   0.21279   0.0700  1.0000  0.0030  -9.4475   0.0000   0.2958
 -24.100  -0.9171   0.21231   0.21151   0.0691  1.0000  0.0031  -9.4522   0.0000   0.2950
 -24.000  -0.9162   0.21106   0.21025   0.0682  1.0000  0.0031  -9.4520   0.0000   0.2942
 -23.900  -0.9152   0.20983   0.20902   0.0673  1.0000  0.0031  -9.4468   0.0000   0.2935
 -23.800  -0.9142   0.20860   0.20778   0.0665  1.0000  0.0032  -9.4418   0.0000   0.2928
 -23.700  -0.9135   0.20731   0.20649   0.0656  1.0000  0.0032  -9.4430   0.0000   0.2920
 -23.600  -0.9214   0.20393   0.20308   0.0635  1.0000  0.0032  -9.7529   0.0000   0.2889
 -23.500  -0.9215   0.20246   0.20160   0.0625  1.0000  0.0032  -9.7762   0.0000   0.2879
 -23.400  -0.9210   0.20111   0.20024   0.0616  1.0000  0.0032  -9.7813   0.0000   0.2871
 -23.300  -0.9204   0.19978   0.19891   0.0606  1.0000  0.0032  -9.7822   0.0000   0.2862
 -23.200  -0.9199   0.19842   0.19754   0.0597  1.0000  0.0032  -9.7866   0.0000   0.2854
 -23.100  -0.9286   0.19500   0.19409   0.0575  1.0000  0.0033  -10.0866   0.0000   0.2823
 -23.000  -0.9295   0.19333   0.19241   0.0564  1.0000  0.0033  -10.1290   0.0000   0.2811
 -22.900  -0.9297   0.19184   0.19091   0.0554  1.0000  0.0033  -10.1470   0.0000   0.2801
 -22.700  -0.9401   0.18664   0.18567   0.0519  1.0000  0.0033  -10.4849   0.0000   0.2757
 -22.600  -0.9419   0.18479   0.18381   0.0507  1.0000  0.0033  -10.5433   0.0000   0.2744
 -22.500  -0.9430   0.18310   0.18211   0.0495  1.0000  0.0033  -10.5798   0.0000   0.2732
 -22.400  -0.9553   0.17905   0.17803   0.0468  1.0000  0.0033  -10.9324   0.0000   0.2695
 -22.300  -0.9584   0.17694   0.17590   0.0454  1.0000  0.0033  -11.0193   0.0000   0.2679
 -22.200  -0.9618   0.17480   0.17375   0.0439  1.0000  0.0033  -11.1072   0.0000   0.2663
 -22.100  -0.9772   0.17020   0.16910   0.0408  1.0000  0.0033  -11.5159   0.0000   0.2623
 -22.000  -0.9939   0.16542   0.16427   0.0375  1.0000  0.0033  -11.9416   0.0000   0.2581
 -21.900  -1.0003   0.16272   0.16155   0.0356  1.0000  0.0033  -12.0877   0.0000   0.2560
 -21.800  -1.0213   0.15718   0.15595   0.0317  1.0000  0.0033  -12.5936   0.0000   0.2513
 -21.700  -1.0454   0.15114   0.14985   0.0275  1.0000  0.0033  -13.1502   0.0000   0.2464
 -21.600  -1.0880   0.14171   0.14031   0.0207  1.0000  0.0033  -14.1118   0.0000   0.2388
 -21.500  -1.1258   0.13336   0.13187   0.0146  1.0000  0.0032  -14.9174   0.0000   0.2327
 -21.400  -1.2251   0.11412   0.11240   0.0006  1.0000  0.0031  -16.9822   0.0000   0.2198
 -21.300  -1.3102   0.09784   0.09590  -0.0110  1.0000  0.0030  -18.6323   0.0000   0.2109
 -21.200  -1.3599   0.08794   0.08586  -0.0179  1.0000  0.0028  -19.5249   0.0000   0.2063
 -21.100  -1.3969   0.08040   0.07820  -0.0230  1.0000  0.0027  -20.1483   0.0000   0.2032
 -21.000  -1.4244   0.07463   0.07235  -0.0268  1.0000  0.0026  -20.5761   0.0000   0.2011
 -20.900  -1.4477   0.06968   0.06732  -0.0300  1.0000  0.0026  -20.9167   0.0000   0.1994
 -20.800  -1.4681   0.06534   0.06291  -0.0328  1.0000  0.0025  -21.1951   0.0000   0.1980
 -20.700  -1.4858   0.06151   0.05901  -0.0352  1.0000  0.0025  -21.4197   0.0000   0.1970
 -20.600  -1.5018   0.05803   0.05547  -0.0373  1.0000  0.0025  -21.6071   0.0000   0.1961
 -20.500  -1.5165   0.05482   0.05221  -0.0391  1.0000  0.0024  -21.7664   0.0000   0.1953
 -20.400  -1.5298   0.05190   0.04923  -0.0408  1.0000  0.0024  -21.8978   0.0000   0.1948
 -20.300  -1.5416   0.04927   0.04656  -0.0422  1.0000  0.0024  -21.9986   0.0000   0.1943
 -20.200  -1.5523   0.04685   0.04409  -0.0434  1.0000  0.0024  -22.0783   0.0000   0.1940
 -20.100  -1.5624   0.04460   0.04179  -0.0444  1.0000  0.0024  -22.1423   0.0000   0.1938
 -20.000  -1.5716   0.04252   0.03967  -0.0453  1.0000  0.0024  -22.1895   0.0000   0.1936
 -19.900  -1.5800   0.04061   0.03772  -0.0459  1.0000  0.0024  -22.2216   0.0000   0.1936
 -19.800  -1.5880   0.03885   0.03591  -0.0465  1.0000  0.0024  -22.2423   0.0000   0.1937
 -19.700  -1.5955   0.03722   0.03424  -0.0468  1.0000  0.0025  -22.2530   0.0000   0.1938
 -19.600  -1.6027   0.03572   0.03271  -0.0470  1.0000  0.0025  -22.2552   0.0000   0.1941
 -19.500  -1.6094   0.03435   0.03130  -0.0470  1.0000  0.0025  -22.2464   0.0000   0.1945
 -19.400  -1.6158   0.03307   0.02999  -0.0468  1.0000  0.0025  -22.2316   0.0000   0.1949
 -19.300  -1.6217   0.03191   0.02879  -0.0465  1.0000  0.0025  -22.2070   0.0000   0.1954
 -19.200  -1.6273   0.03084   0.02769  -0.0461  1.0000  0.0026  -22.1753   0.0000   0.1960
 -19.100  -1.6327   0.02984   0.02666  -0.0455  1.0000  0.0026  -22.1380   0.0000   0.1967
 -19.000  -1.6379   0.02893   0.02571  -0.0448  1.0000  0.0026  -22.0959   0.0000   0.1974
 -18.900  -1.6427   0.02808   0.02484  -0.0440  1.0000  0.0026  -22.0473   0.0000   0.1982
 -18.800  -1.6468   0.02733   0.02406  -0.0431  1.0000  0.0027  -21.9877   0.0000   0.1990
 -18.700  -1.6509   0.02662   0.02333  -0.0421  1.0000  0.0027  -21.9257   0.0000   0.1999
 -18.600  -1.6550   0.02595   0.02263  -0.0410  1.0000  0.0027  -21.8631   0.0000   0.2008
 -18.500  -1.6578   0.02536   0.02201  -0.0399  1.0000  0.0028  -21.7820   0.0000   0.2017
 -18.400  -1.6615   0.02478   0.02141  -0.0386  1.0000  0.0028  -21.7119   0.0000   0.2027
 -18.300  -1.6636   0.02428   0.02088  -0.0374  1.0000  0.0028  -21.6184   0.0000   0.2037
 -18.200  -1.6668   0.02379   0.02037  -0.0360  1.0000  0.0028  -21.5399   0.0000   0.2047
 -18.100  -1.6683   0.02337   0.01992  -0.0347  1.0000  0.0029  -21.4373   0.0000   0.2057
 -18.000  -1.6703   0.02297   0.01950  -0.0332  1.0000  0.0029  -21.3412   0.0000   0.2068
 -17.900  -1.6726   0.02258   0.01909  -0.0317  1.0000  0.0029  -21.2486   0.0000   0.2080
 -17.800  -1.6731   0.02223   0.01872  -0.0303  1.0000  0.0030  -21.1323   0.0000   0.2090
 -17.700  -1.6747   0.02190   0.01836  -0.0286  1.0000  0.0030  -21.0293   0.0000   0.2102
 -17.600  -1.6770   0.02158   0.01803  -0.0268  1.0000  0.0030  -20.9332   0.0000   0.2114
 -17.500  -1.6764   0.02130   0.01772  -0.0254  1.0000  0.0030  -20.8028   0.0000   0.2125
 -17.400  -1.6761   0.02104   0.01744  -0.0238  1.0000  0.0031  -20.6743   0.0000   0.2136
 -17.300  -1.6767   0.02080   0.01718  -0.0221  1.0000  0.0031  -20.5566   0.0000   0.2148
 -17.200  -1.6797   0.02059   0.01696  -0.0198  1.0000  0.0031  -20.4689   0.0000   0.2163
 -17.100  -1.6842   0.02041   0.01676  -0.0172  1.0000  0.0031  -20.3967   0.0000   0.2180
 -17.000  -1.6810   0.02017   0.01650  -0.0161  1.0000  0.0031  -20.2346   0.0000   0.2189
 -16.900  -1.6768   0.01993   0.01625  -0.0151  1.0000  0.0031  -20.0598   0.0000   0.2196
 -16.800  -1.6721   0.01969   0.01599  -0.0142  1.0000  0.0032  -19.8803   0.0000   0.2204
 -16.700  -1.6670   0.01946   0.01575  -0.0133  1.0000  0.0032  -19.6964   0.0000   0.2210
 -16.600  -1.6616   0.01923   0.01551  -0.0125  1.0000  0.0032  -19.5092   0.0000   0.2217
 -16.500  -1.6559   0.01901   0.01527  -0.0117  1.0000  0.0032  -19.3191   0.0000   0.2223
 -16.400  -1.6498   0.01879   0.01504  -0.0110  1.0000  0.0032  -19.1265   0.0000   0.2229
 -16.300  -1.6436   0.01857   0.01481  -0.0103  1.0000  0.0032  -18.9317   0.0000   0.2235
 -16.200  -1.6371   0.01836   0.01458  -0.0096  1.0000  0.0033  -18.7350   0.0000   0.2240
 -16.100  -1.6304   0.01815   0.01436  -0.0090  1.0000  0.0033  -18.5368   0.0000   0.2246
 -16.000  -1.6235   0.01794   0.01414  -0.0084  1.0000  0.0033  -18.3372   0.0000   0.2251
 -15.900  -1.6164   0.01774   0.01393  -0.0078  1.0000  0.0033  -18.1364   0.0000   0.2257
 -15.800  -1.6092   0.01754   0.01372  -0.0072  1.0000  0.0033  -17.9346   0.0000   0.2262
 -15.700  -1.6018   0.01734   0.01350  -0.0067  1.0000  0.0033  -17.7332   0.0000   0.2267
 -15.600  -1.5945   0.01713   0.01328  -0.0061  1.0000  0.0034  -17.5338   0.0000   0.2272
 -15.500  -1.5871   0.01692   0.01306  -0.0056  1.0000  0.0035  -17.3338   0.0000   0.2277
 -15.400  -1.5795   0.01670   0.01284  -0.0051  1.0000  0.0035  -17.1337   0.0000   0.2282
 -15.300  -1.5719   0.01649   0.01262  -0.0046  1.0000  0.0036  -16.9335   0.0000   0.2287
 -15.200  -1.5642   0.01628   0.01240  -0.0041  1.0000  0.0037  -16.7333   0.0000   0.2292
 -15.100  -1.5563   0.01607   0.01218  -0.0036  1.0000  0.0038  -16.5332   0.0000   0.2296
 -15.000  -1.5484   0.01586   0.01196  -0.0031  1.0000  0.0039  -16.3331   0.0000   0.2301
 -14.900  -1.5404   0.01566   0.01174  -0.0026  1.0000  0.0040  -16.1331   0.0000   0.2306
 -14.800  -1.5323   0.01545   0.01153  -0.0022  1.0000  0.0041  -15.9327   0.0000   0.2310
 -14.700  -1.5240   0.01525   0.01132  -0.0018  1.0000  0.0042  -15.7320   0.0000   0.2315
 -14.600  -1.5156   0.01506   0.01112  -0.0013  1.0000  0.0043  -15.5305   0.0000   0.2319
 -14.500  -1.5071   0.01487   0.01093  -0.0010  1.0000  0.0044  -15.3287   0.0000   0.2323
 -14.400  -1.4984   0.01469   0.01074  -0.0006  1.0000  0.0044  -15.1267   0.0000   0.2328
 -14.300  -1.4896   0.01452   0.01056  -0.0002  1.0000  0.0045  -14.9245   0.0000   0.2332
 -14.200  -1.4807   0.01435   0.01039   0.0001  1.0000  0.0046  -14.7224   0.0000   0.2336
 -14.100  -1.4717   0.01419   0.01022   0.0005  1.0000  0.0046  -14.5203   0.0000   0.2340
 -14.000  -1.4626   0.01403   0.01005   0.0008  1.0000  0.0047  -14.3185   0.0000   0.2344
 -13.900  -1.4535   0.01388   0.00989   0.0011  1.0000  0.0047  -14.1170   0.0000   0.2348
 -13.800  -1.4442   0.01373   0.00974   0.0014  1.0000  0.0048  -13.9159   0.0000   0.2352
 -13.700  -1.4349   0.01358   0.00958   0.0017  1.0000  0.0048  -13.7153   0.0000   0.2355
 -13.600  -1.4255   0.01344   0.00943   0.0020  1.0000  0.0048  -13.5153   0.0000   0.2359
 -13.500  -1.4160   0.01330   0.00929   0.0023  1.0000  0.0049  -13.3159   0.0000   0.2363
 -13.400  -1.4065   0.01316   0.00914   0.0026  1.0000  0.0049  -13.1173   0.0000   0.2367
 -13.300  -1.3970   0.01302   0.00900   0.0029  1.0000  0.0049  -12.9194   0.0000   0.2370
 -13.200  -1.3873   0.01289   0.00886   0.0031  1.0000  0.0049  -12.7223   0.0000   0.2374
 -13.100  -1.3776   0.01276   0.00873   0.0034  1.0000  0.0049  -12.5260   0.0000   0.2378
 -13.000  -1.3679   0.01263   0.00859   0.0036  1.0000  0.0049  -12.3306   0.0000   0.2381
 -12.900  -1.3583   0.01249   0.00845   0.0039  1.0000  0.0050  -12.1380   0.0000   0.2385
 -12.800  -1.3486   0.01234   0.00829   0.0041  1.0000  0.0051  -11.9473   0.0000   0.2389
 -12.700  -1.3390   0.01219   0.00814   0.0044  1.0000  0.0053  -11.7576   0.0000   0.2392
 -12.600  -1.3317   0.01258   0.00795   0.0051  0.7088  0.0054  -11.5930   0.0000   0.2399
 -12.500  -1.3221   0.01248   0.00779   0.0053  0.6819  0.0056  -11.4064   0.0000   0.2403
 -12.400  -1.3124   0.01236   0.00764   0.0056  0.6652  0.0058  -11.2203   0.0000   0.2406
 -12.300  -1.3027   0.01224   0.00749   0.0058  0.6531  0.0059  -11.0350   0.0000   0.2410
 -12.200  -1.2928   0.01211   0.00734   0.0060  0.6440  0.0060  -10.8502   0.0000   0.2414
 -12.100  -1.2829   0.01199   0.00720   0.0063  0.6348  0.0062  -10.6661   0.0000   0.2417
 -12.000  -1.2730   0.01187   0.00707   0.0065  0.6281  0.0063  -10.4825   0.0000   0.2421
 -11.900  -1.2629   0.01176   0.00694   0.0067  0.6203  0.0064  -10.2998   0.0000   0.2424
 -11.800  -1.2528   0.01165   0.00681   0.0069  0.6151  0.0065  -10.1178   0.0000   0.2428
 -11.700  -1.2427   0.01154   0.00669   0.0071  0.6087  0.0066  -9.9366   0.0000   0.2431
 -11.600  -1.2325   0.01144   0.00657   0.0073  0.6037  0.0067  -9.7562   0.0000   0.2435
 -11.500  -1.2222   0.01134   0.00646   0.0074  0.5990  0.0068  -9.5767   0.0000   0.2438
 -11.400  -1.2119   0.01125   0.00635   0.0076  0.5932  0.0068  -9.3984   0.0000   0.2442
 -11.300  -1.2015   0.01115   0.00625   0.0078  0.5890  0.0069  -9.2210   0.0000   0.2445
 -11.200  -1.1912   0.01106   0.00614   0.0079  0.5842  0.0069  -9.0633   0.0000   0.2448
 -11.000  -1.1703   0.01089   0.00594   0.0083  0.5744  0.0069  -8.7776   0.0000   0.2455
 -10.900  -1.1600   0.01078   0.00582   0.0084  0.5697  0.0071  -8.6389   0.0000   0.2458
 -10.700  -1.1392   0.01057   0.00558   0.0088  0.5607  0.0076  -8.3633   0.0000   0.2465
 -10.600  -1.1289   0.01046   0.00547   0.0089  0.5566  0.0079  -8.2265   0.0000   0.2469
 -10.500  -1.1185   0.01036   0.00535   0.0091  0.5514  0.0081  -8.0903   0.0000   0.2472
 -10.400  -1.1080   0.01026   0.00524   0.0093  0.5474  0.0083  -7.9546   0.0000   0.2476
 -10.300  -1.0975   0.01016   0.00513   0.0094  0.5435  0.0085  -7.8193   0.0000   0.2479
 -10.200  -1.0870   0.01007   0.00503   0.0096  0.5385  0.0087  -7.6846   0.0000   0.2483
 -10.100  -1.0764   0.00998   0.00494   0.0097  0.5340  0.0088  -7.5505   0.0000   0.2486
 -10.000  -1.0658   0.00990   0.00484   0.0098  0.5307  0.0090  -7.4170   0.0000   0.2490
  -9.900  -1.0551   0.00982   0.00476   0.0100  0.5266  0.0091  -7.2843   0.0000   0.2493
  -9.800  -1.0444   0.00975   0.00467   0.0101  0.5215  0.0092  -7.1523   0.0000   0.2496
  -9.700  -1.0336   0.00967   0.00459   0.0102  0.5183  0.0092  -7.0210   0.0000   0.2500
  -9.600  -1.0229   0.00960   0.00451   0.0103  0.5147  0.0093  -6.8906   0.0000   0.2503
  -9.500  -1.0121   0.00954   0.00442   0.0104  0.5101  0.0093  -6.7611   0.0000   0.2507
  -9.400  -1.0013   0.00946   0.00433   0.0105  0.5055  0.0096  -6.6341   0.0000   0.2510
  -9.300  -0.9906   0.00937   0.00424   0.0107  0.5028  0.0100  -6.5082   0.0000   0.2514
  -9.200  -0.9799   0.00928   0.00414   0.0108  0.4991  0.0104  -6.3833   0.0000   0.2517
  -9.100  -0.9692   0.00919   0.00405   0.0109  0.4947  0.0108  -6.2592   0.0000   0.2521
  -9.000  -0.9585   0.00911   0.00396   0.0110  0.4908  0.0111  -6.1356   0.0000   0.2525
  -8.900  -0.9477   0.00903   0.00387   0.0112  0.4880  0.0114  -6.0160   0.0000   0.2528
  -8.800  -0.9368   0.00895   0.00379   0.0113  0.4843  0.0117  -5.9018   0.0000   0.2532
  -8.700  -0.9259   0.00889   0.00372   0.0114  0.4797  0.0118  -5.7882   0.0000   0.2535
  -8.600  -0.9150   0.00883   0.00365   0.0115  0.4762  0.0120  -5.6753   0.0000   0.2539
  -8.500  -0.9040   0.00877   0.00358   0.0115  0.4736  0.0120  -5.5630   0.0000   0.2543
  -8.400  -0.8930   0.00871   0.00351   0.0116  0.4703  0.0122  -5.4517   0.0000   0.2546
  -8.300  -0.8822   0.00864   0.00343   0.0117  0.4663  0.0129  -5.3431   0.0000   0.2550
  -8.200  -0.8713   0.00855   0.00334   0.0118  0.4622  0.0136  -5.2351   0.0000   0.2554
  -8.100  -0.8604   0.00847   0.00326   0.0120  0.4599  0.0141  -5.1274   0.0000   0.2558
  -8.000  -0.8495   0.00840   0.00319   0.0120  0.4568  0.0145  -5.0201   0.0000   0.2562
  -7.900  -0.8385   0.00834   0.00312   0.0121  0.4530  0.0148  -4.9134   0.0000   0.2566
  -7.800  -0.8274   0.00829   0.00306   0.0122  0.4485  0.0150  -4.8074   0.0000   0.2570
  -7.700  -0.8163   0.00824   0.00300   0.0123  0.4465  0.0152  -4.7020   0.0000   0.2573
  -7.600  -0.8052   0.00819   0.00294   0.0124  0.4441  0.0153  -4.5974   0.0000   0.2577
  -7.500  -0.7942   0.00812   0.00287   0.0124  0.4409  0.0160  -4.4951   0.0000   0.2582
  -7.400  -0.7832   0.00806   0.00280   0.0125  0.4370  0.0168  -4.3936   0.0000   0.2586
  -7.300  -0.7722   0.00799   0.00273   0.0126  0.4333  0.0174  -4.2927   0.0000   0.2590
  -7.200  -0.7611   0.00793   0.00267   0.0127  0.4314  0.0180  -4.1923   0.0000   0.2594
  -7.100  -0.7500   0.00787   0.00261   0.0128  0.4288  0.0184  -4.0925   0.0000   0.2599
  -7.000  -0.7389   0.00783   0.00255   0.0128  0.4257  0.0187  -3.9969   0.0000   0.2603
  -6.900  -0.7277   0.00778   0.00250   0.0129  0.4220  0.0190  -3.9062   0.0000   0.2607
  -6.800  -0.7166   0.00772   0.00244   0.0130  0.4190  0.0200  -3.8172   0.0000   0.2612
  -6.700  -0.7055   0.00766   0.00238   0.0130  0.4172  0.0209  -3.7287   0.0000   0.2617
  -6.600  -0.6943   0.00760   0.00232   0.0131  0.4148  0.0216  -3.6408   0.0000   0.2622
  -6.500  -0.6832   0.00755   0.00227   0.0132  0.4118  0.0222  -3.5533   0.0000   0.2626
  -6.400  -0.6720   0.00751   0.00221   0.0132  0.4082  0.0226  -3.4665   0.0000   0.2631
  -6.300  -0.6607   0.00747   0.00217   0.0133  0.4049  0.0229  -3.3803   0.0000   0.2636
  -6.200  -0.6495   0.00742   0.00211   0.0133  0.4035  0.0242  -3.2955   0.0000   0.2641
  -6.100  -0.6384   0.00735   0.00206   0.0134  0.4016  0.0253  -3.2116   0.0000   0.2647
  -6.000  -0.6272   0.00730   0.00201   0.0135  0.3991  0.0262  -3.1282   0.0000   0.2652
  -5.900  -0.6159   0.00726   0.00196   0.0135  0.3961  0.0269  -3.0452   0.0000   0.2658
  -5.800  -0.6047   0.00723   0.00192   0.0136  0.3923  0.0275  -2.9630   0.0000   0.2663
  -5.700  -0.5934   0.00717   0.00187   0.0136  0.3903  0.0293  -2.8822   0.0000   0.2669
  -5.600  -0.5822   0.00711   0.00182   0.0137  0.3887  0.0306  -2.8082   0.0000   0.2675
  -5.500  -0.5709   0.00707   0.00177   0.0137  0.3867  0.0315  -2.7348   0.0000   0.2682
  -5.400  -0.5596   0.00704   0.00173   0.0138  0.3843  0.0321  -2.6619   0.0000   0.2688
  -5.300  -0.5483   0.00700   0.00169   0.0138  0.3815  0.0337  -2.5900   0.0000   0.2694
  -5.200  -0.5371   0.00695   0.00164   0.0139  0.3782  0.0353  -2.5191   0.0000   0.2701
  -5.100  -0.5258   0.00690   0.00160   0.0139  0.3764  0.0366  -2.4484   0.0000   0.2708
  -5.000  -0.5145   0.00686   0.00156   0.0139  0.3750  0.0374  -2.3781   0.0000   0.2716
  -4.900  -0.5032   0.00682   0.00152   0.0140  0.3730  0.0396  -2.3090   0.0000   0.2723
  -4.800  -0.4919   0.00677   0.00148   0.0140  0.3707  0.0417  -2.2407   0.0000   0.2731
  -4.700  -0.4806   0.00674   0.00144   0.0141  0.3680  0.0430  -2.1744   0.0000   0.2739
  -4.600  -0.4692   0.00671   0.00141   0.0141  0.3649  0.0445  -2.1126   0.0000   0.2748
  -4.500  -0.4579   0.00666   0.00137   0.0141  0.3629  0.0469  -2.0516   0.0000   0.2756
  -4.400  -0.4466   0.00661   0.00133   0.0142  0.3618  0.0487  -1.9910   0.0000   0.2766
  -4.300  -0.4351   0.00658   0.00130   0.0142  0.3603  0.0497  -1.9307   0.0000   0.2775
  -4.200  -0.4238   0.00654   0.00126   0.0142  0.3584  0.0529  -1.8715   0.0000   0.2785
  -4.100  -0.4125   0.00650   0.00123   0.0143  0.3561  0.0554  -1.8127   0.0000   0.2796
  -4.000  -0.4011   0.00647   0.00120   0.0143  0.3533  0.0569  -1.7543   0.0000   0.2807
  -3.900  -0.3898   0.00643   0.00117   0.0143  0.3502  0.0602  -1.7011   0.0000   0.2819
  -3.800  -0.3784   0.00639   0.00114   0.0144  0.3489  0.0625  -1.6486   0.0000   0.2831
  -3.700  -0.3669   0.00637   0.00111   0.0144  0.3479  0.0638  -1.5964   0.0000   0.2844
  -3.600  -0.3555   0.00632   0.00108   0.0144  0.3465  0.0675  -1.5450   0.0000   0.2858
  -3.500  -0.3442   0.00629   0.00105   0.0145  0.3447  0.0706  -1.4941   0.0000   0.2873
  -3.400  -0.3327   0.00627   0.00103   0.0145  0.3426  0.0724  -1.4434   0.0000   0.2888
  -3.300  -0.3213   0.00623   0.00100   0.0145  0.3401  0.0761  -1.3976   0.0000   0.2905
  -3.200  -0.3099   0.00620   0.00098   0.0145  0.3370  0.0787  -1.3521   0.0000   0.2922
  -3.100  -0.2984   0.00618   0.00096   0.0145  0.3356  0.0801  -1.3067   0.0000   0.2941
  -3.000  -0.2870   0.00614   0.00093   0.0146  0.3345  0.0845  -1.2621   0.0000   0.2962
  -2.900  -0.2756   0.00611   0.00091   0.0146  0.3332  0.0877  -1.2182   0.0000   0.2984
  -2.800  -0.2641   0.00609   0.00089   0.0146  0.3316  0.0893  -1.1776   0.0000   0.3008
  -2.700  -0.2527   0.00606   0.00087   0.0146  0.3298  0.0933  -1.1376   0.0000   0.3034
  -2.600  -0.2413   0.00604   0.00085   0.0146  0.3276  0.0968  -1.0980   0.0000   0.3063
  -2.500  -0.2298   0.00602   0.00083   0.0147  0.3249  0.0993  -1.0586   0.0000   0.3094
  -2.400  -0.2184   0.00599   0.00081   0.0147  0.3226  0.1043  -1.0225   0.0000   0.3129
  -2.300  -0.2069   0.00596   0.00079   0.0147  0.3218  0.1072  -0.9867   0.0000   0.3167
  -2.200  -0.1954   0.00594   0.00078   0.0147  0.3206  0.1109  -0.9513   0.0000   0.3209
  -2.100  -0.1839   0.00590   0.00076   0.0147  0.3190  0.1161  -0.9168   0.0000   0.3257
  -2.000  -0.1724   0.00588   0.00074   0.0147  0.3172  0.1193  -0.8846   0.0000   0.3312
  -1.900  -0.1610   0.00585   0.00073   0.0147  0.3152  0.1251  -0.8529   0.0000   0.3373
  -1.800  -0.1495   0.00584   0.00071   0.0147  0.3130  0.1289  -0.8213   0.0000   0.3444
  -1.700  -0.1381   0.00580   0.00069   0.0148  0.3104  0.1358  -0.7917   0.0000   0.3527
  -1.600  -0.1266   0.00578   0.00068   0.0148  0.3093  0.1401  -0.7629   0.0000   0.3625
  -1.500  -0.1152   0.00574   0.00067   0.0148  0.3083  0.1471  -0.7344   0.0000   0.3743
  -1.400  -0.1037   0.00572   0.00066   0.0148  0.3070  0.1521  -0.7070   0.0000   0.3886
  -1.300  -0.0922   0.00568   0.00064   0.0148  0.3054  0.1607  -0.6811   0.0000   0.4064
  -1.200  -0.0808   0.00566   0.00063   0.0148  0.3034  0.1671  -0.6551   0.0000   0.4293
  -1.100  -0.0693   0.00564   0.00062   0.0148  0.3011  0.1744  -0.6513   0.0000   0.4597
  -1.000  -0.0579   0.00561   0.00061   0.0148  0.2985  0.1834  -0.6634   0.0000   0.5021
  -0.900  -0.0464   0.00558   0.00060   0.0148  0.2968  0.1911  -0.6757   0.0000   0.5656
  -0.800  -0.0350   0.00555   0.00059   0.0148  0.2961  0.1995  -0.6881   0.0000   0.6706
  -0.700  -0.0235   0.00551   0.00058   0.0148  0.2951  0.2095  -0.7006   0.0000   0.8775
  -0.600  -0.0121   0.00547   0.00057   0.0148  0.2938  0.2193  -0.7130   0.0000   1.4771
  -0.500  -0.0006   0.00545   0.00056   0.0148  0.2921  0.2279  -0.7256   0.0000  24.9678
  -0.400   0.0108   0.00542   0.00055   0.0149  0.2901  0.2385  -0.7381   0.0000  -1.1292
  -0.300   0.0222   0.00539   0.00055   0.0149  0.2877  0.2500  -0.7506   0.0000  -0.4237
  -0.200   0.0337   0.00536   0.00054   0.0149  0.2850  0.2611  -0.7631   0.0000  -0.1964
  -0.100   0.0451   0.00534   0.00054   0.0149  0.2839  0.2710  -0.7758   0.0000  -0.0839
   0.000   0.0566   0.00531   0.00054   0.0149  0.2831  0.2813  -0.7889   0.0000  -0.0171
   0.100   0.0681   0.00527   0.00053   0.0149  0.2820  0.2936  -0.8022   0.0000   0.0271
   0.200   0.0795   0.00524   0.00053   0.0149  0.2807  0.3056  -0.8155   0.0000   0.0585
   0.300   0.0910   0.00521   0.00053   0.0149  0.2791  0.3159  -0.8288   0.0000   0.0821
   0.400   0.1025   0.00520   0.00053   0.0149  0.2773  0.3260  -0.8421   0.0000   0.1005
   0.500   0.1139   0.00518   0.00053   0.0149  0.2750  0.3366  -0.8555   0.0000   0.1151
   0.600   0.1254   0.00516   0.00053   0.0149  0.2725  0.3482  -0.8689   0.0000   0.1271
   0.700   0.1369   0.00514   0.00053   0.0149  0.2716  0.3577  -0.8824   0.0000   0.1371
   0.800   0.1484   0.00512   0.00054   0.0148  0.2707  0.3651  -0.8960   0.0000   0.1456
   0.900   0.1599   0.00510   0.00054   0.0148  0.2696  0.3758  -0.9096   0.0000   0.1528
   1.000   0.1714   0.00508   0.00054   0.0148  0.2681  0.3859  -0.9236   0.0000   0.1590
   1.100   0.1829   0.00507   0.00055   0.0148  0.2665  0.3951  -0.9379   0.0000   0.1645
   1.200   0.1944   0.00506   0.00055   0.0148  0.2647  0.4048  -0.9521   0.0000   0.1693
   1.300   0.2059   0.00506   0.00056   0.0148  0.2627  0.4129  -0.9664   0.0000   0.1736
   1.400   0.2174   0.00505   0.00057   0.0148  0.2605  0.4216  -0.9807   0.0000   0.1774
   1.500   0.2289   0.00503   0.00057   0.0148  0.2597  0.4324  -0.9951   0.0000   0.1808
   1.600   0.2404   0.00501   0.00058   0.0148  0.2589  0.4419  -1.0096   0.0000   0.1840
   1.700   0.2519   0.00500   0.00059   0.0148  0.2579  0.4515  -1.0241   0.0000   0.1868
   1.800   0.2634   0.00498   0.00059   0.0148  0.2566  0.4621  -1.0386   0.0000   0.1894
   1.900   0.2749   0.00497   0.00060   0.0148  0.2549  0.4729  -1.0531   0.0000   0.1917
   2.000   0.2864   0.00497   0.00062   0.0148  0.2531  0.4835  -1.0678   0.0000   0.1939
   2.100   0.2978   0.00497   0.00063   0.0147  0.2499  0.4942  -1.0830   0.0000   0.1958
   2.200   0.3093   0.00496   0.00064   0.0147  0.2478  0.5057  -1.0982   0.0000   0.1977
   2.300   0.3207   0.00495   0.00066   0.0147  0.2450  0.5180  -1.1135   0.0000   0.1994
   2.400   0.3321   0.00497   0.00068   0.0147  0.2401  0.5300  -1.1287   0.0000   0.2009
   2.500   0.3435   0.00496   0.00070   0.0147  0.2366  0.5425  -1.1440   0.0000   0.2024
   2.600   0.3550   0.00495   0.00071   0.0147  0.2356  0.5555  -1.1595   0.0000   0.2037
   2.700   0.3664   0.00493   0.00072   0.0147  0.2339  0.5692  -1.1749   0.0000   0.2050
   2.800   0.3778   0.00492   0.00074   0.0147  0.2316  0.5842  -1.1904   0.0000   0.2062
   2.900   0.3891   0.00492   0.00076   0.0147  0.2285  0.6011  -1.2058   0.0000   0.2073
   3.000   0.4004   0.00490   0.00078   0.0147  0.2252  0.6207  -1.2212   0.0000   0.2083
   3.100   0.4117   0.00486   0.00080   0.0147  0.2238  0.6430  -1.2368   0.0000   0.2092
   3.200   0.4229   0.00483   0.00082   0.0147  0.2213  0.6665  -1.2529   0.0000   0.2101
   3.300   0.4341   0.00481   0.00084   0.0148  0.2180  0.6899  -1.2690   0.0000   0.2109
   3.400   0.4453   0.00479   0.00087   0.0148  0.2144  0.7116  -1.2852   0.0000   0.2116
   3.500   0.4566   0.00477   0.00089   0.0148  0.2122  0.7319  -1.3015   0.0000   0.2123
   3.600   0.4677   0.00478   0.00093   0.0148  0.2064  0.7515  -1.3176   0.0000   0.2130
   3.700   0.4789   0.00478   0.00096   0.0149  0.2022  0.7700  -1.3339   0.0000   0.2136
   3.800   0.4901   0.00478   0.00099   0.0149  0.1988  0.7858  -1.3503   0.0000   0.2142
   3.900   0.5012   0.00481   0.00103   0.0149  0.1931  0.8012  -1.3666   0.0000   0.2147
   4.000   0.5121   0.00485   0.00108   0.0150  0.1853  0.8176  -1.3827   0.0000   0.2152
   4.100   0.5232   0.00489   0.00113   0.0150  0.1783  0.8294  -1.3991   0.0000   0.2157
   4.200   0.5341   0.00494   0.00119   0.0151  0.1701  0.8457  -1.4153   0.0000   0.2161
   4.300   0.5447   0.00507   0.00128   0.0152  0.1561  0.8570  -1.4314   0.0000   0.2164
   4.400   0.5550   0.00528   0.00142   0.0153  0.1340  0.8702  -1.4493   0.0000   0.2167
   4.500   0.5615   0.00637   0.00209   0.0157  0.0125  0.8837  -1.4553   0.0000   0.2162
   4.600   0.5725   0.00645   0.00216   0.0158  0.0059  0.8906  -1.4981   0.0000   0.2165
   4.700   0.5829   0.00648   0.00223   0.0160  0.0032  0.9063  -1.5788   0.0000   0.2166
   4.800   0.5936   0.00651   0.00228   0.0162  0.0024  0.9179  -1.6557   0.0000   0.2167
   4.900   0.6047   0.00656   0.00233   0.0162  0.0021  0.9236  -1.7327   0.0000   0.2170
   5.000   0.6155   0.00659   0.00239   0.0164  0.0020  0.9350  -1.8115   0.0000   0.2172
   5.100   0.6260   0.00662   0.00245   0.0166  0.0019  0.9471  -1.8929   0.0000   0.2173
   5.200   0.6369   0.00667   0.00251   0.0167  0.0019  0.9552  -1.9781   0.0000   0.2175
   5.300   0.6481   0.00672   0.00256   0.0167  0.0019  0.9594  -2.0665   0.0000   0.2178
   5.400   0.6597   0.00678   0.00263   0.0167  0.0018  0.9648  -2.1587   0.0000   0.2183
   5.500   0.6724   0.00684   0.00269   0.0164  0.0018  0.9734  -2.2568   0.0000   0.2191
   5.600   0.6852   0.00690   0.00275   0.0160  0.0018  0.9799  -2.3572   0.0000   0.2200
   5.700   0.6979   0.00696   0.00282   0.0157  0.0018  0.9845  -2.4584   0.0000   0.2207
   5.800   0.7102   0.00703   0.00288   0.0155  0.0018  0.9876  -2.5598   0.0000   0.2214
   5.900   0.7223   0.00710   0.00295   0.0153  0.0018  0.9897  -2.6617   0.0000   0.2219
   6.000   0.7342   0.00717   0.00302   0.0152  0.0018  0.9912  -2.7642   0.0000   0.2223
   6.100   0.7460   0.00724   0.00309   0.0151  0.0018  0.9923  -2.8676   0.0000   0.2227
   6.200   0.7578   0.00732   0.00317   0.0150  0.0018  0.9932  -2.9721   0.0000   0.2231
   6.300   0.7695   0.00739   0.00325   0.0149  0.0018  0.9940  -3.0774   0.0000   0.2235
   6.400   0.7811   0.00747   0.00332   0.0148  0.0018  0.9947  -3.1839   0.0000   0.2238
   6.500   0.7927   0.00755   0.00340   0.0147  0.0018  0.9953  -3.2913   0.0000   0.2241
   6.600   0.8043   0.00763   0.00349   0.0146  0.0018  0.9958  -3.3997   0.0000   0.2243
   6.700   0.8159   0.00772   0.00357   0.0145  0.0018  0.9963  -3.5091   0.0000   0.2246
   6.800   0.8274   0.00781   0.00366   0.0145  0.0018  0.9967  -3.6194   0.0000   0.2248
   6.900   0.8389   0.00790   0.00375   0.0144  0.0018  0.9970  -3.7304   0.0000   0.2251
   7.000   0.8504   0.00799   0.00385   0.0143  0.0018  0.9974  -3.8423   0.0000   0.2253
   7.100   0.8619   0.00809   0.00395   0.0142  0.0018  0.9977  -3.9549   0.0000   0.2255
   7.200   0.8734   0.00819   0.00405   0.0142  0.0018  0.9979  -4.0682   0.0000   0.2257
   7.300   0.8849   0.00829   0.00416   0.0141  0.0019  0.9982  -4.1821   0.0000   0.2259
   7.400   0.8964   0.00840   0.00428   0.0140  0.0019  0.9984  -4.2963   0.0000   0.2261
   7.500   0.9080   0.00851   0.00439   0.0139  0.0019  0.9986  -4.4105   0.0000   0.2263
   7.600   0.9196   0.00863   0.00452   0.0138  0.0019  0.9988  -4.5245   0.0000   0.2265
   7.700   0.9311   0.00875   0.00466   0.0136  0.0019  0.9990  -4.6378   0.0000   0.2267
   7.800   0.9427   0.00889   0.00480   0.0135  0.0019  0.9992  -4.7523   0.0000   0.2269
   7.900   0.9543   0.00903   0.00496   0.0134  0.0019  0.9993  -4.8672   0.0000   0.2271
   8.000   0.9658   0.00919   0.00513   0.0133  0.0020  0.9994  -4.9799   0.0000   0.2273
   8.100   0.9773   0.00936   0.00531   0.0132  0.0020  0.9995  -5.0899   0.0000   0.2275
   8.200   0.9887   0.00954   0.00552   0.0130  0.0020  0.9996  -5.1968   0.0000   0.2276
   8.300   1.0000   0.00975   0.00575   0.0129  0.0020  0.9997  -5.3001   0.0000   0.2278
   8.400   1.0111   0.00997   0.00600   0.0128  0.0021  0.9997  -5.3994   0.0000   0.2279
   8.500   1.0221   0.01023   0.00629   0.0128  0.0021  0.9998  -5.4945   0.0000   0.2280
   8.600   1.0330   0.01052   0.00660   0.0127  0.0022  0.9999  -5.5852   0.0000   0.2281
   8.700   1.0438   0.01084   0.00697   0.0126  0.0022  0.9999  -5.6684   0.0000   0.2282
   8.800   1.0543   0.01122   0.00739   0.0125  0.0023  1.0000  -5.7430   0.0000   0.2283
   8.900   1.0631   0.01164   0.00785   0.0127  0.0023  1.0000  -5.8050   0.0000   0.2280
   9.000   1.0714   0.01199   0.00823   0.0131  0.0024  1.0000  -5.8846   0.0000   0.2277
   9.100   1.0797   0.01231   0.00857   0.0134  0.0024  1.0000  -5.9751   0.0000   0.2273
   9.200   1.0879   0.01263   0.00892   0.0138  0.0024  1.0000  -6.0663   0.0000   0.2269
   9.300   1.0956   0.01299   0.00931   0.0142  0.0024  1.0000  -6.1495   0.0000   0.2265
   9.400   1.1018   0.01356   0.00992   0.0148  0.0025  1.0000  -6.1884   0.0000   0.2260
   9.900   1.0977   0.01986   0.01651   0.0212  0.0029  1.0000  -5.8191   0.0000   0.2195
  10.000   1.1035   0.02030   0.01696   0.0218  0.0029  1.0000  -5.9092   0.0000   0.2189
  10.100   1.1092   0.02075   0.01743   0.0224  0.0029  1.0000  -5.9987   0.0000   0.2183
  10.200   1.1148   0.02121   0.01790   0.0230  0.0029  1.0000  -6.0875   0.0000   0.2177
  10.300   1.1201   0.02167   0.01839   0.0236  0.0029  1.0000  -6.1756   0.0000   0.2172
  10.400   1.1253   0.02215   0.01888   0.0242  0.0029  1.0000  -6.2628   0.0000   0.2166
  10.500   1.1303   0.02263   0.01939   0.0249  0.0029  1.0000  -6.3490   0.0000   0.2160
  10.600   1.1351   0.02313   0.01991   0.0255  0.0029  1.0000  -6.4340   0.0000   0.2154
  10.700   1.1396   0.02363   0.02043   0.0261  0.0029  1.0000  -6.5176   0.0000   0.2148
  10.800   1.1438   0.02415   0.02097   0.0268  0.0029  1.0000  -6.5996   0.0000   0.2141
  10.900   1.1477   0.02468   0.02152   0.0275  0.0029  1.0000  -6.6795   0.0000   0.2135
  11.000   1.1516   0.02524   0.02211   0.0281  0.0029  1.0000  -6.7588   0.0000   0.2129
  11.100   1.1524   0.02575   0.02264   0.0292  0.0029  1.0000  -6.8205   0.0000   0.2118
  11.200   1.1490   0.02616   0.02308   0.0311  0.0029  1.0000  -6.8579   0.0000   0.2099
  11.300   1.1480   0.02665   0.02360   0.0324  0.0029  1.0000  -6.9080   0.0000   0.2086
  11.400   1.1470   0.02721   0.02419   0.0335  0.0029  1.0000  -6.9570   0.0000   0.2076
  11.500   1.1464   0.02785   0.02485   0.0342  0.0029  1.0000  -7.0067   0.0000   0.2067
  11.600   1.1460   0.02856   0.02560   0.0346  0.0029  1.0000  -7.0561   0.0000   0.2062
  11.700   1.1457   0.02934   0.02641   0.0349  0.0029  1.0000  -7.1050   0.0000   0.2058
  11.800   1.1456   0.03017   0.02727   0.0349  0.0029  1.0000  -7.1534   0.0000   0.2057
  11.900   1.1456   0.03104   0.02817   0.0348  0.0029  1.0000  -7.2019   0.0000   0.2056
  12.000   1.1458   0.03195   0.02912   0.0346  0.0029  1.0000  -7.2505   0.0000   0.2056
  12.100   1.1460   0.03291   0.03010   0.0343  0.0029  1.0000  -7.2988   0.0000   0.2056
  12.200   1.1461   0.03389   0.03112   0.0341  0.0029  1.0000  -7.3463   0.0000   0.2057
  12.300   1.1461   0.03490   0.03215   0.0338  0.0029  1.0000  -7.3924   0.0000   0.2057
  12.400   1.1459   0.03593   0.03322   0.0336  0.0029  1.0000  -7.4371   0.0000   0.2058
  12.500   1.1455   0.03697   0.03429   0.0333  0.0029  1.0000  -7.4796   0.0000   0.2058
  12.600   1.1448   0.03803   0.03539   0.0330  0.0029  1.0000  -7.5200   0.0000   0.2059
  12.700   1.1440   0.03913   0.03651   0.0327  0.0029  1.0000  -7.5588   0.0000   0.2059
  12.800   1.1429   0.04025   0.03767   0.0324  0.0029  1.0000  -7.5958   0.0000   0.2060
  12.900   1.1417   0.04141   0.03886   0.0320  0.0029  1.0000  -7.6309   0.0000   0.2061
  13.000   1.1402   0.04260   0.04009   0.0317  0.0029  1.0000  -7.6637   0.0000   0.2062
  13.100   1.1385   0.04383   0.04134   0.0312  0.0028  1.0000  -7.6942   0.0000   0.2064
  13.200   1.1366   0.04507   0.04262   0.0308  0.0028  1.0000  -7.7229   0.0000   0.2065
  13.300   1.1344   0.04633   0.04391   0.0304  0.0028  1.0000  -7.7494   0.0000   0.2067
  13.400   1.1320   0.04765   0.04526   0.0299  0.0028  1.0000  -7.7729   0.0000   0.2069
  13.500   1.1294   0.04899   0.04664   0.0294  0.0028  1.0000  -7.7952   0.0000   0.2071
  13.600   1.1268   0.05036   0.04804   0.0288  0.0028  1.0000  -7.8163   0.0000   0.2073
  13.700   1.1238   0.05179   0.04950   0.0282  0.0028  1.0000  -7.8336   0.0000   0.2076
  13.800   1.1208   0.05323   0.05098   0.0276  0.0028  1.0000  -7.8502   0.0000   0.2079
  13.900   1.1175   0.05469   0.05247   0.0270  0.0028  1.0000  -7.8645   0.0000   0.2082
  14.000   1.1139   0.05621   0.05402   0.0263  0.0028  1.0000  -7.8752   0.0000   0.2085
  14.100   1.1105   0.05774   0.05558   0.0256  0.0028  1.0000  -7.8867   0.0000   0.2089
  14.200   1.1066   0.05934   0.05722   0.0249  0.0028  1.0000  -7.8935   0.0000   0.2093
  14.300   1.1028   0.06095   0.05886   0.0241  0.0028  1.0000  -7.9004   0.0000   0.2097
  14.400   1.0987   0.06261   0.06056   0.0233  0.0028  1.0000  -7.9048   0.0000   0.2101
  14.500   1.0945   0.06430   0.06228   0.0225  0.0028  1.0000  -7.9063   0.0000   0.2106
  14.600   1.0905   0.06602   0.06403   0.0216  0.0028  1.0000  -7.9093   0.0000   0.2112
  14.700   1.0862   0.06786   0.06590   0.0206  0.0028  1.0000  -7.9078   0.0000   0.2118
  14.800   1.0822   0.06968   0.06775   0.0197  0.0028  1.0000  -7.9091   0.0000   0.2124
  14.900   1.0778   0.07162   0.06973   0.0186  0.0028  1.0000  -7.9042   0.0000   0.2131
  15.000   1.0737   0.07352   0.07166   0.0176  0.0028  1.0000  -7.9024   0.0000   0.2138
  15.100   1.0691   0.07554   0.07371   0.0165  0.0028  1.0000  -7.8941   0.0000   0.2146
  15.200   1.0648   0.07751   0.07572   0.0154  0.0028  1.0000  -7.8884   0.0000   0.2153
  15.300   1.0601   0.07961   0.07785   0.0143  0.0028  1.0000  -7.8770   0.0000   0.2162
  15.400   1.0557   0.08168   0.07996   0.0131  0.0028  1.0000  -7.8678   0.0000   0.2170
  15.500   1.0509   0.08386   0.08216   0.0119  0.0028  1.0000  -7.8535   0.0000   0.2180
  15.600   1.0464   0.08601   0.08435   0.0107  0.0028  1.0000  -7.8406   0.0000   0.2189
  15.700   1.0415   0.08825   0.08662   0.0094  0.0028  1.0000  -7.8234   0.0000   0.2199
  15.800   1.0368   0.09047   0.08887   0.0082  0.0028  1.0000  -7.8066   0.0000   0.2209
  15.900   1.0319   0.09276   0.09119   0.0069  0.0028  1.0000  -7.7861   0.0000   0.2219
  16.000   1.0271   0.09505   0.09352   0.0055  0.0028  1.0000  -7.7659   0.0000   0.2230
  16.100   1.0222   0.09741   0.09591   0.0042  0.0028  1.0000  -7.7426   0.0000   0.2242
  16.200   1.0174   0.09977   0.09830   0.0028  0.0028  1.0000  -7.7189   0.0000   0.2253
  16.300   1.0124   0.10217   0.10073   0.0014  0.0028  1.0000  -7.6925   0.0000   0.2266
  16.400   1.0075   0.10458   0.10317  -0.0000  0.0028  1.0000  -7.6648   0.0000   0.2278
  16.500   1.0026   0.10701   0.10564  -0.0015  0.0028  1.0000  -7.6353   0.0000   0.2291
  16.600   0.9976   0.10949   0.10814  -0.0030  0.0028  1.0000  -7.6033   0.0000   0.2304
  16.700   0.9928   0.11196   0.11064  -0.0045  0.0028  1.0000  -7.5711   0.0000   0.2318
  16.800   0.9878   0.11450   0.11321  -0.0060  0.0028  1.0000  -7.5347   0.0000   0.2333
  16.900   0.9831   0.11699   0.11573  -0.0075  0.0028  1.0000  -7.4996   0.0000   0.2347
  17.000   0.9779   0.11959   0.11837  -0.0092  0.0028  1.0000  -7.4576   0.0000   0.2362
  17.100   0.9732   0.12210   0.12090  -0.0107  0.0028  1.0000  -7.4193   0.0000   0.2377
  17.200   0.9680   0.12477   0.12361  -0.0124  0.0028  1.0000  -7.3714   0.0000   0.2394
  17.300   0.9634   0.12731   0.12618  -0.0139  0.0028  1.0000  -7.3295   0.0000   0.2410
  17.400   0.9581   0.13006   0.12895  -0.0157  0.0028  1.0000  -7.2756   0.0000   0.2428
  17.500   0.9535   0.13267   0.13159  -0.0173  0.0028  1.0000  -7.2271   0.0000   0.2445
  17.600   0.9483   0.13543   0.13438  -0.0191  0.0028  1.0000  -7.1688   0.0000   0.2463
  17.700   0.9433   0.13816   0.13714  -0.0209  0.0028  1.0000  -7.1100   0.0000   0.2482
  17.800   0.9384   0.14090   0.13990  -0.0226  0.0028  1.0000  -7.0493   0.0000   0.2501
  17.900   0.9330   0.14377   0.14281  -0.0244  0.0028  1.0000  -6.9790   0.0000   0.2521
  18.000   0.9283   0.14654   0.14560  -0.0262  0.0028  1.0000  -6.9126   0.0000   0.2541
  18.100   0.9229   0.14950   0.14859  -0.0281  0.0028  1.0000  -6.8330   0.0000   0.2563
  18.200   0.9176   0.15249   0.15160  -0.0300  0.0028  1.0000  -6.7484   0.0000   0.2585
  18.300   0.9126   0.15543   0.15458  -0.0319  0.0028  1.0000  -6.6633   0.0000   0.2607
  18.400   0.9069   0.15857   0.15774  -0.0339  0.0028  1.0000  -6.5629   0.0000   0.2631
  18.500   0.9010   0.16184   0.16105  -0.0360  0.0028  1.0000  -6.4497   0.0000   0.2657
  18.600   0.8949   0.16524   0.16447  -0.0381  0.0028  1.0000  -6.3235   0.0000   0.2684
  18.700   0.8885   0.16883   0.16809  -0.0404  0.0028  1.0000  -6.1775   0.0000   0.2713
  18.800   0.8813   0.17275   0.17204  -0.0428  0.0028  1.0000  -5.9990   0.0000   0.2745
  18.900   0.8726   0.17730   0.17662  -0.0455  0.0028  1.0000  -5.7584   0.0000   0.2783


