xflr5 v6.47

 Calculated polar for: 763ER

 1 1 Reynolds number fixed          Mach number fixed         

 xtrf =   1.000 (top)        1.000 (bottom)
 Mach =   0.000     Re =    10.000 e 6     Ncrit =   9.000

  alpha     CL        CD       CDp       Cm    Top Xtr Bot Xtr   Cpmin    Chinge    XCp    
 ------- -------- --------- --------- -------- ------- ------- -------- --------- ---------
 -25.000  -0.9073   0.22823   0.22753   0.0789  1.0000  0.0020  -8.6702   0.0000   0.3064
 -24.900  -0.9055   0.22720   0.22650   0.0782  1.0000  0.0020  -8.6479   0.0000   0.3059
 -24.800  -0.9040   0.22611   0.22541   0.0774  1.0000  0.0021  -8.6360   0.0000   0.3053
 -24.700  -0.9137   0.22190   0.22117   0.0752  1.0000  0.0023  -9.1134   0.0000   0.3015
 -24.600  -0.9132   0.22055   0.21981   0.0742  1.0000  0.0024  -9.1376   0.0000   0.3006
 -24.500  -0.9125   0.21926   0.21852   0.0733  1.0000  0.0024  -9.1503   0.0000   0.2998
 -24.400  -0.9119   0.21792   0.21718   0.0724  1.0000  0.0025  -9.1698   0.0000   0.2990
 -24.300  -0.9224   0.21380   0.21303   0.0701  1.0000  0.0026  -9.6163   0.0000   0.2952
 -24.200  -0.9222   0.21237   0.21160   0.0691  1.0000  0.0027  -9.6438   0.0000   0.2942
 -24.100  -0.9219   0.21098   0.21021   0.0682  1.0000  0.0028  -9.6633   0.0000   0.2933
 -24.000  -0.9216   0.20961   0.20883   0.0672  1.0000  0.0028  -9.6796   0.0000   0.2924
 -23.900  -0.9312   0.20587   0.20506   0.0650  1.0000  0.0029  -10.0514   0.0000   0.2890
 -23.800  -0.9321   0.20421   0.20339   0.0638  1.0000  0.0029  -10.1033   0.0000   0.2878
 -23.700  -0.9321   0.20276   0.20194   0.0628  1.0000  0.0030  -10.1238   0.0000   0.2868
 -23.600  -0.9320   0.20133   0.20050   0.0618  1.0000  0.0030  -10.1400   0.0000   0.2859
 -23.500  -0.9423   0.19756   0.19670   0.0595  1.0000  0.0030  -10.4984   0.0000   0.2824
 -23.400  -0.9437   0.19580   0.19493   0.0583  1.0000  0.0030  -10.5560   0.0000   0.2811
 -23.300  -0.9442   0.19426   0.19338   0.0572  1.0000  0.0031  -10.5832   0.0000   0.2801
 -23.100  -0.9575   0.18851   0.18759   0.0534  1.0000  0.0031  -11.0095   0.0000   0.2751
 -23.000  -0.9589   0.18679   0.18585   0.0522  1.0000  0.0031  -11.0535   0.0000   0.2739
 -22.900  -0.9716   0.18270   0.18172   0.0494  1.0000  0.0031  -11.4256   0.0000   0.2702
 -22.800  -0.9750   0.18056   0.17958   0.0479  1.0000  0.0031  -11.5204   0.0000   0.2686
 -22.700  -0.9779   0.17853   0.17753   0.0465  1.0000  0.0031  -11.5983   0.0000   0.2670
 -22.600  -0.9941   0.17382   0.17278   0.0433  1.0000  0.0031  -12.0377   0.0000   0.2628
 -22.500  -1.0098   0.16928   0.16819   0.0401  1.0000  0.0031  -12.4461   0.0000   0.2589
 -22.400  -1.0167   0.16651   0.16540   0.0382  1.0000  0.0031  -12.6096   0.0000   0.2567
 -22.300  -1.0364   0.16126   0.16009   0.0344  1.0000  0.0031  -13.0955   0.0000   0.2523
 -22.200  -1.0576   0.15581   0.15459   0.0305  1.0000  0.0031  -13.5959   0.0000   0.2478
 -22.100  -1.0813   0.14995   0.14866   0.0263  1.0000  0.0031  -14.1393   0.0000   0.2431
 -22.000  -1.1078   0.14362   0.14226   0.0216  1.0000  0.0030  -14.7261   0.0000   0.2383
 -21.900  -1.1369   0.13689   0.13546   0.0167  1.0000  0.0029  -15.3498   0.0000   0.2334
 -21.800  -1.1682   0.12983   0.12831   0.0116  1.0000  0.0028  -15.9986   0.0000   0.2286
 -21.700  -1.2096   0.12101   0.11938   0.0051  1.0000  0.0026  -16.8413   0.0000   0.2230
 -21.600  -1.2493   0.11257   0.11083  -0.0009  1.0000  0.0025  -17.6144   0.0000   0.2180
 -21.500  -1.2911   0.10384   0.10198  -0.0071  1.0000  0.0023  -18.4023   0.0000   0.2134
 -21.400  -1.3459   0.09299   0.09098  -0.0148  1.0000  0.0020  -19.4153   0.0000   0.2080
 -21.300  -1.3994   0.08261   0.08046  -0.0219  1.0000  0.0020  -20.3679   0.0000   0.2035
 -21.200  -1.4393   0.07482   0.07255  -0.0272  1.0000  0.0019  -21.0328   0.0000   0.2005
 -21.100  -1.4677   0.06913   0.06678  -0.0310  1.0000  0.0019  -21.4660   0.0000   0.1986
 -21.000  -1.4913   0.06434   0.06191  -0.0340  1.0000  0.0019  -21.8037   0.0000   0.1971
 -20.900  -1.5110   0.06028   0.05778  -0.0366  1.0000  0.0019  -22.0610   0.0000   0.1960
 -20.800  -1.5280   0.05671   0.05415  -0.0387  1.0000  0.0019  -22.2639   0.0000   0.1951
 -20.700  -1.5430   0.05352   0.05091  -0.0405  1.0000  0.0019  -22.4274   0.0000   0.1944
 -20.600  -1.5560   0.05069   0.04803  -0.0421  1.0000  0.0019  -22.5518   0.0000   0.1939
 -20.500  -1.5674   0.04817   0.04546  -0.0434  1.0000  0.0019  -22.6453   0.0000   0.1936
 -20.400  -1.5780   0.04581   0.04305  -0.0445  1.0000  0.0019  -22.7203   0.0000   0.1933
 -20.300  -1.5877   0.04364   0.04084  -0.0454  1.0000  0.0019  -22.7769   0.0000   0.1931
 -20.200  -1.5963   0.04167   0.03883  -0.0462  1.0000  0.0019  -22.8136   0.0000   0.1931
 -20.100  -1.6044   0.03984   0.03697  -0.0468  1.0000  0.0019  -22.8374   0.0000   0.1931
 -20.000  -1.6120   0.03815   0.03524  -0.0472  1.0000  0.0019  -22.8506   0.0000   0.1932
 -19.900  -1.6191   0.03660   0.03365  -0.0475  1.0000  0.0019  -22.8528   0.0000   0.1934
 -19.800  -1.6256   0.03520   0.03221  -0.0476  1.0000  0.0019  -22.8427   0.0000   0.1937
 -19.700  -1.6318   0.03389   0.03086  -0.0476  1.0000  0.0019  -22.8266   0.0000   0.1941
 -19.600  -1.6375   0.03269   0.02963  -0.0474  1.0000  0.0019  -22.7987   0.0000   0.1945
 -19.500  -1.6428   0.03159   0.02850  -0.0471  1.0000  0.0019  -22.7629   0.0000   0.1950
 -19.400  -1.6477   0.03057   0.02746  -0.0466  1.0000  0.0019  -22.7207   0.0000   0.1956
 -19.300  -1.6524   0.02963   0.02649  -0.0460  1.0000  0.0019  -22.6728   0.0000   0.1962
 -19.200  -1.6570   0.02876   0.02558  -0.0454  1.0000  0.0019  -22.6210   0.0000   0.1969
 -19.100  -1.6610   0.02796   0.02476  -0.0446  1.0000  0.0019  -22.5604   0.0000   0.1977
 -19.000  -1.6644   0.02725   0.02402  -0.0438  1.0000  0.0019  -22.4887   0.0000   0.1985
 -18.900  -1.6681   0.02656   0.02331  -0.0428  1.0000  0.0019  -22.4214   0.0000   0.1993
 -18.800  -1.6712   0.02593   0.02265  -0.0418  1.0000  0.0020  -22.3441   0.0000   0.2002
 -18.700  -1.6739   0.02535   0.02205  -0.0407  1.0000  0.0020  -22.2597   0.0000   0.2010
 -18.600  -1.6768   0.02480   0.02147  -0.0395  1.0000  0.0020  -22.1778   0.0000   0.2020
 -18.500  -1.6788   0.02430   0.02095  -0.0383  1.0000  0.0020  -22.0832   0.0000   0.2029
 -18.400  -1.6809   0.02384   0.02046  -0.0370  1.0000  0.0020  -21.9886   0.0000   0.2039
 -18.300  -1.6831   0.02340   0.02000  -0.0357  1.0000  0.0020  -21.8956   0.0000   0.2049
 -18.200  -1.6839   0.02302   0.01960  -0.0344  1.0000  0.0020  -21.7831   0.0000   0.2059
 -18.100  -1.6864   0.02263   0.01919  -0.0329  1.0000  0.0020  -21.6918   0.0000   0.2070
 -18.000  -1.6876   0.02227   0.01881  -0.0314  1.0000  0.0020  -21.5831   0.0000   0.2081
 -17.900  -1.6884   0.02193   0.01845  -0.0299  1.0000  0.0021  -21.4698   0.0000   0.2091
 -17.800  -1.6911   0.02160   0.01809  -0.0281  1.0000  0.0021  -21.3793   0.0000   0.2104
 -17.700  -1.6924   0.02129   0.01776  -0.0264  1.0000  0.0022  -21.2711   0.0000   0.2116
 -17.600  -1.6923   0.02100   0.01746  -0.0249  1.0000  0.0022  -21.1453   0.0000   0.2127
 -17.500  -1.6930   0.02073   0.01717  -0.0231  1.0000  0.0023  -21.0283   0.0000   0.2139
 -17.400  -1.6955   0.02049   0.01691  -0.0210  1.0000  0.0023  -20.9336   0.0000   0.2153
 -17.300  -1.7023   0.02031   0.01671  -0.0180  1.0000  0.0024  -20.8902   0.0000   0.2173
 -17.200  -1.7020   0.02006   0.01644  -0.0164  1.0000  0.0024  -20.7615   0.0000   0.2184
 -17.100  -1.6988   0.01977   0.01614  -0.0152  1.0000  0.0025  -20.5988   0.0000   0.2192
 -17.000  -1.6951   0.01949   0.01584  -0.0142  1.0000  0.0026  -20.4310   0.0000   0.2200
 -16.900  -1.6910   0.01920   0.01554  -0.0132  1.0000  0.0026  -20.2579   0.0000   0.2208
 -16.800  -1.6864   0.01893   0.01525  -0.0123  1.0000  0.0027  -20.0797   0.0000   0.2215
 -16.700  -1.6814   0.01866   0.01497  -0.0114  1.0000  0.0028  -19.8964   0.0000   0.2222
 -16.600  -1.6759   0.01841   0.01470  -0.0106  1.0000  0.0029  -19.7084   0.0000   0.2228
 -16.500  -1.6701   0.01816   0.01445  -0.0099  1.0000  0.0029  -19.5160   0.0000   0.2234
 -16.400  -1.6638   0.01793   0.01420  -0.0092  1.0000  0.0030  -19.3203   0.0000   0.2240
 -16.300  -1.6573   0.01770   0.01397  -0.0085  1.0000  0.0030  -19.1215   0.0000   0.2245
 -16.200  -1.6505   0.01749   0.01374  -0.0079  1.0000  0.0031  -18.9204   0.0000   0.2251
 -16.100  -1.6435   0.01728   0.01352  -0.0073  1.0000  0.0031  -18.7174   0.0000   0.2256
 -16.000  -1.6362   0.01707   0.01330  -0.0068  1.0000  0.0031  -18.5130   0.0000   0.2261
 -15.900  -1.6288   0.01687   0.01310  -0.0062  1.0000  0.0032  -18.3074   0.0000   0.2266
 -15.800  -1.6212   0.01668   0.01289  -0.0057  1.0000  0.0032  -18.1008   0.0000   0.2271
 -15.700  -1.6135   0.01649   0.01269  -0.0052  1.0000  0.0032  -17.8935   0.0000   0.2276
 -15.600  -1.6056   0.01630   0.01250  -0.0047  1.0000  0.0032  -17.6857   0.0000   0.2281
 -15.500  -1.5977   0.01612   0.01231  -0.0042  1.0000  0.0032  -17.4775   0.0000   0.2285
 -15.400  -1.5895   0.01594   0.01212  -0.0038  1.0000  0.0032  -17.2690   0.0000   0.2290
 -15.300  -1.5813   0.01576   0.01193  -0.0034  1.0000  0.0033  -17.0603   0.0000   0.2294
 -15.200  -1.5730   0.01559   0.01175  -0.0029  1.0000  0.0033  -16.8515   0.0000   0.2299
 -15.100  -1.5645   0.01542   0.01157  -0.0025  1.0000  0.0033  -16.6427   0.0000   0.2303
 -15.000  -1.5560   0.01525   0.01140  -0.0021  1.0000  0.0033  -16.4340   0.0000   0.2307
 -14.900  -1.5474   0.01508   0.01122  -0.0017  1.0000  0.0033  -16.2259   0.0000   0.2311
 -14.800  -1.5389   0.01490   0.01104  -0.0013  1.0000  0.0034  -16.0200   0.0000   0.2316
 -14.700  -1.5302   0.01473   0.01085  -0.0009  1.0000  0.0035  -15.8146   0.0000   0.2320
 -14.600  -1.5216   0.01455   0.01067  -0.0006  1.0000  0.0036  -15.6099   0.0000   0.2324
 -14.500  -1.5129   0.01437   0.01048  -0.0002  1.0000  0.0037  -15.4059   0.0000   0.2328
 -14.400  -1.5041   0.01419   0.01030   0.0002  1.0000  0.0038  -15.2028   0.0000   0.2333
 -14.300  -1.4953   0.01401   0.01011   0.0006  1.0000  0.0039  -15.0005   0.0000   0.2337
 -14.200  -1.4865   0.01383   0.00992   0.0009  1.0000  0.0040  -14.7990   0.0000   0.2341
 -14.100  -1.4776   0.01365   0.00974   0.0013  1.0000  0.0041  -14.5980   0.0000   0.2345
 -14.000  -1.4686   0.01347   0.00956   0.0016  1.0000  0.0042  -14.3970   0.0000   0.2349
 -13.900  -1.4595   0.01330   0.00939   0.0019  1.0000  0.0043  -14.1961   0.0000   0.2353
 -13.800  -1.4503   0.01314   0.00922   0.0023  1.0000  0.0044  -13.9951   0.0000   0.2357
 -13.700  -1.4410   0.01299   0.00906   0.0026  1.0000  0.0045  -13.7943   0.0000   0.2361
 -13.600  -1.4315   0.01284   0.00891   0.0028  1.0000  0.0046  -13.5937   0.0000   0.2365
 -13.500  -1.4220   0.01269   0.00876   0.0031  1.0000  0.0046  -13.3935   0.0000   0.2368
 -13.400  -1.4125   0.01255   0.00862   0.0034  1.0000  0.0047  -13.1937   0.0000   0.2372
 -13.300  -1.4028   0.01242   0.00848   0.0036  1.0000  0.0047  -12.9946   0.0000   0.2376
 -13.200  -1.3931   0.01229   0.00834   0.0039  1.0000  0.0048  -12.7963   0.0000   0.2379
 -13.100  -1.3859   0.01264   0.00817   0.0046  0.7292  0.0048  -12.6238   0.0000   0.2386
 -13.000  -1.3762   0.01257   0.00803   0.0048  0.6916  0.0048  -12.4286   0.0000   0.2390
 -12.900  -1.3664   0.01248   0.00790   0.0050  0.6717  0.0049  -12.2333   0.0000   0.2393
 -12.800  -1.3565   0.01238   0.00777   0.0053  0.6577  0.0049  -12.0387   0.0000   0.2397
 -12.700  -1.3466   0.01228   0.00764   0.0055  0.6469  0.0049  -11.8448   0.0000   0.2400
 -12.600  -1.3366   0.01218   0.00751   0.0057  0.6375  0.0049  -11.6520   0.0000   0.2403
 -12.500  -1.3266   0.01208   0.00739   0.0059  0.6308  0.0049  -11.4599   0.0000   0.2407
 -12.400  -1.3166   0.01197   0.00727   0.0061  0.6233  0.0050  -11.2696   0.0000   0.2410
 -12.300  -1.3066   0.01185   0.00714   0.0063  0.6174  0.0051  -11.0816   0.0000   0.2414
 -12.200  -1.2966   0.01174   0.00700   0.0065  0.6113  0.0053  -10.8949   0.0000   0.2417
 -12.100  -1.2866   0.01162   0.00687   0.0068  0.6051  0.0054  -10.7094   0.0000   0.2421
 -12.000  -1.2766   0.01150   0.00674   0.0070  0.6007  0.0056  -10.5251   0.0000   0.2424
 -11.900  -1.2665   0.01138   0.00661   0.0072  0.5951  0.0058  -10.3422   0.0000   0.2428
 -11.800  -1.2565   0.01126   0.00647   0.0074  0.5904  0.0059  -10.1605   0.0000   0.2432
 -11.700  -1.2463   0.01114   0.00635   0.0076  0.5865  0.0061  -9.9796   0.0000   0.2435
 -11.600  -1.2362   0.01102   0.00622   0.0078  0.5812  0.0062  -9.7996   0.0000   0.2439
 -11.500  -1.2260   0.01091   0.00610   0.0080  0.5764  0.0064  -9.6204   0.0000   0.2442
 -11.400  -1.2157   0.01081   0.00599   0.0081  0.5723  0.0065  -9.4420   0.0000   0.2445
 -11.300  -1.2053   0.01071   0.00588   0.0083  0.5670  0.0066  -9.2646   0.0000   0.2449
 -11.200  -1.1949   0.01062   0.00577   0.0085  0.5623  0.0067  -9.1018   0.0000   0.2452
 -11.100  -1.1845   0.01053   0.00567   0.0086  0.5586  0.0068  -8.9581   0.0000   0.2456
 -11.000  -1.1740   0.01044   0.00557   0.0088  0.5538  0.0068  -8.8152   0.0000   0.2459
 -10.900  -1.1635   0.01036   0.00548   0.0089  0.5488  0.0069  -8.6729   0.0000   0.2462
 -10.800  -1.1529   0.01028   0.00539   0.0091  0.5458  0.0069  -8.5313   0.0000   0.2465
 -10.700  -1.1423   0.01020   0.00530   0.0092  0.5414  0.0069  -8.3906   0.0000   0.2469
 -10.600  -1.1317   0.01012   0.00520   0.0093  0.5358  0.0070  -8.2513   0.0000   0.2472
 -10.500  -1.1212   0.01002   0.00510   0.0095  0.5326  0.0072  -8.1144   0.0000   0.2476
 -10.400  -1.1107   0.00993   0.00500   0.0096  0.5289  0.0075  -7.9783   0.0000   0.2479
 -10.300  -1.1002   0.00984   0.00489   0.0098  0.5240  0.0077  -7.8430   0.0000   0.2482
 -10.200  -1.0896   0.00974   0.00479   0.0099  0.5198  0.0080  -7.7086   0.0000   0.2486
 -10.100  -1.0791   0.00964   0.00469   0.0101  0.5170  0.0082  -7.5748   0.0000   0.2489
 -10.000  -1.0685   0.00955   0.00459   0.0102  0.5130  0.0085  -7.4416   0.0000   0.2493
  -9.900  -1.0578   0.00947   0.00449   0.0103  0.5078  0.0087  -7.3090   0.0000   0.2496
  -9.800  -1.0471   0.00938   0.00441   0.0105  0.5045  0.0088  -7.1769   0.0000   0.2500
  -9.700  -1.0364   0.00931   0.00432   0.0106  0.5014  0.0090  -7.0456   0.0000   0.2503
  -9.600  -1.0256   0.00924   0.00424   0.0107  0.4972  0.0091  -6.9150   0.0000   0.2507
  -9.500  -1.0148   0.00917   0.00416   0.0108  0.4922  0.0092  -6.7852   0.0000   0.2510
  -9.400  -1.0039   0.00910   0.00408   0.0109  0.4898  0.0092  -6.6562   0.0000   0.2513
  -9.300  -0.9930   0.00903   0.00401   0.0110  0.4867  0.0093  -6.5280   0.0000   0.2517
  -9.200  -0.9822   0.00897   0.00394   0.0111  0.4827  0.0093  -6.4008   0.0000   0.2520
  -9.100  -0.9713   0.00891   0.00386   0.0112  0.4776  0.0096  -6.2757   0.0000   0.2524
  -9.000  -0.9605   0.00882   0.00377   0.0113  0.4752  0.0100  -6.1518   0.0000   0.2527
  -8.900  -0.9497   0.00874   0.00369   0.0114  0.4723  0.0105  -6.0321   0.0000   0.2531
  -8.800  -0.9389   0.00866   0.00360   0.0116  0.4686  0.0109  -5.9185   0.0000   0.2535
  -8.700  -0.9281   0.00858   0.00352   0.0117  0.4640  0.0112  -5.8053   0.0000   0.2538
  -8.600  -0.9171   0.00851   0.00345   0.0118  0.4614  0.0115  -5.6924   0.0000   0.2542
  -8.500  -0.9062   0.00845   0.00338   0.0119  0.4589  0.0117  -5.5801   0.0000   0.2546
  -8.400  -0.8952   0.00839   0.00331   0.0119  0.4555  0.0119  -5.4686   0.0000   0.2549
  -8.300  -0.8842   0.00834   0.00325   0.0120  0.4512  0.0120  -5.3578   0.0000   0.2553
  -8.200  -0.8731   0.00829   0.00319   0.0121  0.4476  0.0121  -5.2476   0.0000   0.2557
  -8.100  -0.8621   0.00822   0.00312   0.0122  0.4456  0.0126  -5.1394   0.0000   0.2560
  -8.000  -0.8512   0.00814   0.00304   0.0123  0.4428  0.0134  -5.0325   0.0000   0.2564
  -7.900  -0.8403   0.00807   0.00296   0.0124  0.4395  0.0140  -4.9264   0.0000   0.2568
  -7.800  -0.8293   0.00800   0.00289   0.0125  0.4351  0.0145  -4.8207   0.0000   0.2572
  -7.700  -0.8182   0.00794   0.00283   0.0125  0.4327  0.0148  -4.7153   0.0000   0.2576
  -7.600  -0.8071   0.00789   0.00277   0.0126  0.4306  0.0150  -4.6106   0.0000   0.2580
  -7.500  -0.7959   0.00784   0.00272   0.0127  0.4277  0.0152  -4.5068   0.0000   0.2584
  -7.400  -0.7848   0.00780   0.00267   0.0127  0.4242  0.0153  -4.4037   0.0000   0.2588
  -7.300  -0.7737   0.00775   0.00261   0.0128  0.4200  0.0159  -4.3024   0.0000   0.2593
  -7.200  -0.7626   0.00768   0.00254   0.0129  0.4183  0.0167  -4.2020   0.0000   0.2597
  -7.100  -0.7515   0.00762   0.00248   0.0130  0.4164  0.0174  -4.1026   0.0000   0.2601
  -7.000  -0.7404   0.00756   0.00242   0.0130  0.4138  0.0180  -4.0067   0.0000   0.2606
  -6.900  -0.7293   0.00751   0.00236   0.0131  0.4105  0.0184  -3.9159   0.0000   0.2610
  -6.800  -0.7181   0.00747   0.00232   0.0132  0.4064  0.0187  -3.8257   0.0000   0.2615
  -6.700  -0.7068   0.00743   0.00227   0.0132  0.4044  0.0190  -3.7362   0.0000   0.2619
  -6.600  -0.6956   0.00737   0.00221   0.0133  0.4027  0.0199  -3.6481   0.0000   0.2624
  -6.500  -0.6845   0.00731   0.00216   0.0134  0.4004  0.0209  -3.5609   0.0000   0.2629
  -6.400  -0.6733   0.00726   0.00210   0.0134  0.3978  0.0216  -3.4743   0.0000   0.2634
  -6.300  -0.6621   0.00721   0.00205   0.0135  0.3945  0.0222  -3.3882   0.0000   0.2639
  -6.200  -0.6508   0.00718   0.00201   0.0135  0.3910  0.0226  -3.3026   0.0000   0.2644
  -6.100  -0.6395   0.00714   0.00197   0.0136  0.3898  0.0229  -3.2177   0.0000   0.2649
  -6.000  -0.6283   0.00709   0.00192   0.0136  0.3880  0.0242  -3.1341   0.0000   0.2655
  -5.900  -0.6171   0.00703   0.00187   0.0137  0.3856  0.0253  -3.0515   0.0000   0.2660
  -5.800  -0.6059   0.00698   0.00182   0.0137  0.3829  0.0263  -2.9695   0.0000   0.2666
  -5.700  -0.5946   0.00695   0.00178   0.0138  0.3796  0.0270  -2.8880   0.0000   0.2672
  -5.600  -0.5833   0.00691   0.00174   0.0138  0.3769  0.0278  -2.8128   0.0000   0.2678
  -5.500  -0.5720   0.00686   0.00169   0.0139  0.3758  0.0295  -2.7396   0.0000   0.2684
  -5.400  -0.5607   0.00680   0.00164   0.0139  0.3743  0.0307  -2.6670   0.0000   0.2690
  -5.300  -0.5494   0.00677   0.00160   0.0140  0.3721  0.0316  -2.5948   0.0000   0.2697
  -5.200  -0.5381   0.00674   0.00157   0.0140  0.3696  0.0321  -2.5230   0.0000   0.2704
  -5.100  -0.5267   0.00670   0.00153   0.0140  0.3665  0.0338  -2.4524   0.0000   0.2711
  -5.000  -0.5155   0.00665   0.00149   0.0141  0.3632  0.0355  -2.3825   0.0000   0.2718
  -4.900  -0.5041   0.00661   0.00145   0.0141  0.3623  0.0367  -2.3131   0.0000   0.2725
  -4.800  -0.4927   0.00658   0.00142   0.0142  0.3611  0.0375  -2.2440   0.0000   0.2733
  -4.700  -0.4814   0.00653   0.00138   0.0142  0.3595  0.0401  -2.1776   0.0000   0.2741
  -4.600  -0.4701   0.00648   0.00134   0.0142  0.3574  0.0420  -2.1159   0.0000   0.2750
  -4.500  -0.4587   0.00646   0.00131   0.0143  0.3549  0.0431  -2.0545   0.0000   0.2759
  -4.400  -0.4473   0.00643   0.00128   0.0143  0.3518  0.0446  -1.9937   0.0000   0.2768
  -4.300  -0.4360   0.00639   0.00124   0.0143  0.3494  0.0471  -1.9338   0.0000   0.2777
  -4.200  -0.4246   0.00635   0.00121   0.0144  0.3484  0.0488  -1.8742   0.0000   0.2788
  -4.100  -0.4132   0.00632   0.00118   0.0144  0.3471  0.0499  -1.8150   0.0000   0.2798
  -4.000  -0.4018   0.00627   0.00115   0.0144  0.3455  0.0534  -1.7568   0.0000   0.2809
  -3.900  -0.3905   0.00623   0.00112   0.0145  0.3436  0.0557  -1.7032   0.0000   0.2821
  -3.800  -0.3790   0.00621   0.00109   0.0145  0.3414  0.0570  -1.6504   0.0000   0.2833
  -3.700  -0.3676   0.00618   0.00106   0.0145  0.3385  0.0602  -1.5986   0.0000   0.2846
  -3.600  -0.3562   0.00615   0.00103   0.0145  0.3360  0.0625  -1.5470   0.0000   0.2860
  -3.500  -0.3448   0.00612   0.00101   0.0146  0.3352  0.0639  -1.4957   0.0000   0.2875
  -3.400  -0.3334   0.00608   0.00098   0.0146  0.3340  0.0679  -1.4452   0.0000   0.2890
  -3.300  -0.3219   0.00604   0.00096   0.0146  0.3324  0.0707  -1.3991   0.0000   0.2907
  -3.200  -0.3105   0.00602   0.00094   0.0146  0.3305  0.0721  -1.3533   0.0000   0.2925
  -3.100  -0.2990   0.00599   0.00091   0.0146  0.3285  0.0757  -1.3082   0.0000   0.2944
  -3.000  -0.2876   0.00597   0.00089   0.0147  0.3260  0.0785  -1.2635   0.0000   0.2964
  -2.900  -0.2761   0.00595   0.00087   0.0147  0.3233  0.0802  -1.2192   0.0000   0.2986
  -2.800  -0.2647   0.00591   0.00085   0.0147  0.3223  0.0845  -1.1789   0.0000   0.3010
  -2.700  -0.2532   0.00588   0.00083   0.0147  0.3214  0.0874  -1.1388   0.0000   0.3037
  -2.600  -0.2417   0.00586   0.00081   0.0147  0.3200  0.0889  -1.0989   0.0000   0.3065
  -2.500  -0.2302   0.00584   0.00079   0.0147  0.3183  0.0928  -1.0595   0.0000   0.3096
  -2.400  -0.2188   0.00581   0.00077   0.0147  0.3162  0.0967  -1.0232   0.0000   0.3131
  -2.300  -0.2073   0.00580   0.00076   0.0148  0.3138  0.0986  -0.9874   0.0000   0.3169
  -2.200  -0.1958   0.00578   0.00074   0.0148  0.3112  0.1032  -0.9521   0.0000   0.3211
  -2.100  -0.1843   0.00575   0.00073   0.0148  0.3096  0.1067  -0.9174   0.0000   0.3259
  -2.000  -0.1728   0.00573   0.00071   0.0148  0.3089  0.1098  -0.8851   0.0000   0.3314
  -1.900  -0.1614   0.00569   0.00070   0.0148  0.3078  0.1154  -0.8533   0.0000   0.3375
  -1.800  -0.1498   0.00567   0.00068   0.0148  0.3064  0.1182  -0.8216   0.0000   0.3447
  -1.700  -0.1383   0.00565   0.00067   0.0148  0.3046  0.1236  -0.7919   0.0000   0.3530
  -1.600  -0.1269   0.00563   0.00066   0.0148  0.3024  0.1283  -0.7632   0.0000   0.3627
  -1.500  -0.1154   0.00561   0.00065   0.0148  0.2997  0.1340  -0.7346   0.0000   0.3744
  -1.400  -0.1039   0.00559   0.00063   0.0148  0.2971  0.1389  -0.7073   0.0000   0.3887
  -1.300  -0.0924   0.00556   0.00062   0.0148  0.2964  0.1446  -0.6811   0.0000   0.4066
  -1.200  -0.0809   0.00553   0.00061   0.0148  0.2955  0.1508  -0.6552   0.0000   0.4295
  -1.100  -0.0694   0.00550   0.00060   0.0149  0.2944  0.1579  -0.6513   0.0000   0.4600
  -1.000  -0.0579   0.00548   0.00059   0.0149  0.2930  0.1631  -0.6635   0.0000   0.5026
  -0.900  -0.0465   0.00545   0.00058   0.0149  0.2912  0.1718  -0.6758   0.0000   0.5660
  -0.800  -0.0350   0.00543   0.00057   0.0149  0.2890  0.1787  -0.6882   0.0000   0.6712
  -0.700  -0.0235   0.00541   0.00056   0.0149  0.2863  0.1865  -0.7006   0.0000   0.8783
  -0.600  -0.0121   0.00538   0.00056   0.0149  0.2843  0.1952  -0.7131   0.0000   1.4799
  -0.500  -0.0006   0.00536   0.00055   0.0149  0.2836  0.2030  -0.7256   0.0000  27.1706
  -0.400   0.0109   0.00532   0.00054   0.0149  0.2826  0.2124  -0.7382   0.0000  -1.1190
  -0.300   0.0224   0.00529   0.00053   0.0149  0.2813  0.2219  -0.7508   0.0000  -0.4196
  -0.200   0.0339   0.00527   0.00053   0.0149  0.2797  0.2311  -0.7634   0.0000  -0.1939
  -0.100   0.0454   0.00525   0.00053   0.0149  0.2781  0.2403  -0.7761   0.0000  -0.0826
   0.000   0.0568   0.00522   0.00052   0.0149  0.2760  0.2513  -0.7892   0.0000  -0.0165
   0.200   0.0798   0.00517   0.00052   0.0149  0.2720  0.2717  -0.8157   0.0000   0.0591
   0.300   0.0913   0.00515   0.00052   0.0149  0.2713  0.2816  -0.8291   0.0000   0.0826
   0.400   0.1027   0.00512   0.00051   0.0149  0.2703  0.2928  -0.8424   0.0000   0.1009
   0.500   0.1142   0.00509   0.00051   0.0149  0.2690  0.3031  -0.8559   0.0000   0.1155
   0.600   0.1257   0.00507   0.00051   0.0149  0.2673  0.3134  -0.8693   0.0000   0.1274
   0.700   0.1372   0.00506   0.00052   0.0149  0.2655  0.3230  -0.8828   0.0000   0.1374
   0.800   0.1487   0.00504   0.00052   0.0148  0.2634  0.3340  -0.8963   0.0000   0.1457
   0.900   0.1602   0.00503   0.00052   0.0148  0.2611  0.3424  -0.9099   0.0000   0.1530
   1.000   0.1717   0.00502   0.00052   0.0148  0.2599  0.3500  -0.9240   0.0000   0.1592
   1.100   0.1832   0.00499   0.00053   0.0148  0.2593  0.3607  -0.9382   0.0000   0.1647
   1.200   0.1948   0.00498   0.00053   0.0148  0.2585  0.3701  -0.9525   0.0000   0.1695
   1.300   0.2063   0.00496   0.00053   0.0148  0.2574  0.3787  -0.9669   0.0000   0.1738
   1.400   0.2178   0.00495   0.00054   0.0148  0.2559  0.3878  -0.9812   0.0000   0.1776
   1.500   0.2294   0.00495   0.00055   0.0148  0.2542  0.3948  -0.9956   0.0000   0.1811
   1.600   0.2408   0.00494   0.00056   0.0148  0.2521  0.4050  -1.0100   0.0000   0.1842
   1.700   0.2523   0.00494   0.00057   0.0148  0.2497  0.4144  -1.0245   0.0000   0.1870
   1.800   0.2639   0.00493   0.00058   0.0147  0.2482  0.4229  -1.0390   0.0000   0.1896
   1.900   0.2754   0.00491   0.00058   0.0147  0.2476  0.4337  -1.0536   0.0000   0.1919
   2.000   0.2869   0.00490   0.00059   0.0147  0.2460  0.4434  -1.0684   0.0000   0.1941
   2.100   0.2983   0.00492   0.00061   0.0147  0.2414  0.4530  -1.0835   0.0000   0.1960
   2.200   0.3098   0.00492   0.00063   0.0147  0.2371  0.4634  -1.0987   0.0000   0.1979
   2.300   0.3213   0.00491   0.00064   0.0147  0.2352  0.4747  -1.1140   0.0000   0.1996
   2.400   0.3327   0.00491   0.00065   0.0147  0.2332  0.4854  -1.1294   0.0000   0.2011
   2.500   0.3442   0.00491   0.00067   0.0147  0.2307  0.4961  -1.1447   0.0000   0.2026
   2.600   0.3556   0.00492   0.00069   0.0146  0.2273  0.5069  -1.1601   0.0000   0.2040
   2.700   0.3671   0.00491   0.00070   0.0146  0.2251  0.5190  -1.1756   0.0000   0.2052
   2.800   0.3786   0.00490   0.00071   0.0146  0.2238  0.5312  -1.1911   0.0000   0.2064
   2.900   0.3900   0.00489   0.00073   0.0146  0.2213  0.5434  -1.2067   0.0000   0.2076
   3.000   0.4014   0.00491   0.00076   0.0146  0.2172  0.5559  -1.2221   0.0000   0.2086
   3.100   0.4128   0.00491   0.00078   0.0146  0.2142  0.5692  -1.2378   0.0000   0.2096
   3.200   0.4242   0.00489   0.00079   0.0146  0.2127  0.5835  -1.2541   0.0000   0.2105
   3.300   0.4356   0.00489   0.00082   0.0146  0.2099  0.5998  -1.2704   0.0000   0.2114
   3.400   0.4468   0.00490   0.00085   0.0146  0.2038  0.6180  -1.2865   0.0000   0.2121
   3.500   0.4581   0.00489   0.00087   0.0146  0.2002  0.6391  -1.3028   0.0000   0.2129
   3.600   0.4692   0.00491   0.00091   0.0146  0.1936  0.6605  -1.3189   0.0000   0.2136
   3.700   0.4804   0.00488   0.00094   0.0146  0.1912  0.6832  -1.3353   0.0000   0.2142
   4.000   0.5136   0.00498   0.00109   0.0147  0.1682  0.7424  -1.3839   0.0000   0.2159
   4.100   0.5246   0.00505   0.00116   0.0147  0.1580  0.7579  -1.4001   0.0000   0.2164
   4.300   0.5426   0.00622   0.00187   0.0150  0.0233  0.7897  -1.4244   0.0000   0.2166
   4.400   0.5534   0.00633   0.00197   0.0151  0.0076  0.8023  -1.4411   0.0000   0.2169
   4.500   0.5644   0.00636   0.00203   0.0152  0.0043  0.8190  -1.4582   0.0000   0.2173
   4.600   0.5756   0.00639   0.00207   0.0152  0.0027  0.8295  -1.5108   0.0000   0.2177
   4.700   0.5866   0.00642   0.00213   0.0153  0.0019  0.8460  -1.5756   0.0000   0.2180
   4.800   0.5977   0.00644   0.00218   0.0154  0.0017  0.8567  -1.6480   0.0000   0.2183
   4.900   0.6087   0.00647   0.00224   0.0154  0.0017  0.8688  -1.7284   0.0000   0.2186
   5.000   0.6195   0.00648   0.00229   0.0156  0.0017  0.8828  -1.8108   0.0000   0.2187
   5.100   0.6306   0.00651   0.00234   0.0156  0.0017  0.8899  -1.8966   0.0000   0.2190
   5.200   0.6413   0.00654   0.00240   0.0158  0.0016  0.9037  -1.9829   0.0000   0.2191
   5.300   0.6519   0.00656   0.00245   0.0159  0.0016  0.9159  -2.0702   0.0000   0.2191
   5.400   0.6630   0.00660   0.00251   0.0160  0.0016  0.9223  -2.1608   0.0000   0.2194
   5.500   0.6740   0.00665   0.00258   0.0161  0.0016  0.9296  -2.2531   0.0000   0.2196
   5.600   0.6845   0.00668   0.00264   0.0163  0.0016  0.9435  -2.3441   0.0000   0.2196
   5.700   0.6952   0.00672   0.00270   0.0164  0.0016  0.9530  -2.4373   0.0000   0.2196
   5.800   0.7062   0.00678   0.00276   0.0165  0.0016  0.9582  -2.5334   0.0000   0.2198
   5.900   0.7175   0.00684   0.00283   0.0165  0.0016  0.9615  -2.6318   0.0000   0.2201
   6.000   0.7296   0.00691   0.00290   0.0163  0.0016  0.9712  -2.7354   0.0000   0.2206
   6.100   0.7422   0.00697   0.00297   0.0160  0.0016  0.9790  -2.8424   0.0000   0.2213
   6.200   0.7548   0.00704   0.00305   0.0157  0.0016  0.9848  -2.9507   0.0000   0.2220
   6.300   0.7671   0.00711   0.00312   0.0155  0.0016  0.9883  -3.0589   0.0000   0.2225
   6.400   0.7790   0.00719   0.00320   0.0154  0.0017  0.9904  -3.1669   0.0000   0.2229
   6.500   0.7907   0.00727   0.00328   0.0153  0.0017  0.9918  -3.2755   0.0000   0.2233
   6.600   0.8023   0.00735   0.00336   0.0152  0.0017  0.9929  -3.3849   0.0000   0.2235
   6.700   0.8139   0.00743   0.00344   0.0151  0.0017  0.9937  -3.4951   0.0000   0.2238
   6.800   0.8254   0.00751   0.00352   0.0151  0.0017  0.9944  -3.6063   0.0000   0.2241
   6.900   0.8368   0.00760   0.00361   0.0150  0.0017  0.9950  -3.7184   0.0000   0.2243
   7.000   0.8482   0.00768   0.00370   0.0149  0.0017  0.9955  -3.8314   0.0000   0.2245
   7.100   0.8596   0.00777   0.00379   0.0149  0.0017  0.9960  -3.9452   0.0000   0.2247
   7.200   0.8710   0.00787   0.00389   0.0149  0.0017  0.9964  -4.0598   0.0000   0.2248
   7.300   0.8823   0.00796   0.00399   0.0148  0.0017  0.9968  -4.1775   0.0000   0.2250
   7.400   0.8935   0.00806   0.00409   0.0148  0.0018  0.9971  -4.2965   0.0000   0.2251
   7.500   0.9048   0.00816   0.00419   0.0148  0.0018  0.9974  -4.4161   0.0000   0.2253
   7.600   0.9161   0.00827   0.00431   0.0147  0.0018  0.9977  -4.5360   0.0000   0.2254
   7.700   0.9273   0.00838   0.00442   0.0147  0.0018  0.9980  -4.6560   0.0000   0.2256
   7.800   0.9386   0.00850   0.00455   0.0146  0.0018  0.9983  -4.7755   0.0000   0.2257
   7.900   0.9498   0.00863   0.00468   0.0146  0.0018  0.9985  -4.8936   0.0000   0.2258
   8.000   0.9610   0.00876   0.00483   0.0146  0.0019  0.9987  -5.0090   0.0000   0.2259
   8.100   0.9721   0.00891   0.00500   0.0145  0.0019  0.9989  -5.1195   0.0000   0.2260
   8.200   0.9831   0.00909   0.00520   0.0145  0.0019  0.9990  -5.2204   0.0000   0.2261
   8.300   0.9939   0.00931   0.00545   0.0145  0.0020  0.9992  -5.3055   0.0000   0.2261
   8.400   1.0043   0.00961   0.00578   0.0146  0.0021  0.9993  -5.3691   0.0000   0.2261
   8.500   1.0141   0.01000   0.00623   0.0147  0.0022  0.9994  -5.4086   0.0000   0.2260
   8.600   1.0226   0.01059   0.00691   0.0149  0.0024  0.9995  -5.3991   0.0000   0.2258
   8.700   1.0319   0.01103   0.00738   0.0151  0.0025  0.9996  -5.4557   0.0000   0.2256
   8.800   1.0411   0.01145   0.00784   0.0152  0.0025  0.9996  -5.5229   0.0000   0.2255
   9.400   1.0651   0.01731   0.01401   0.0192  0.0029  0.9999  -5.3666   0.0000   0.2213
   9.500   1.0738   0.01774   0.01445   0.0193  0.0029  0.9999  -5.4608   0.0000   0.2213
   9.600   1.0824   0.01818   0.01491   0.0195  0.0029  0.9999  -5.5650   0.0000   0.2212
   9.700   1.0908   0.01863   0.01537   0.0196  0.0029  1.0000  -5.6689   0.0000   0.2210
   9.800   1.0990   0.01908   0.01584   0.0198  0.0029  1.0000  -5.7720   0.0000   0.2209
   9.900   1.1054   0.01951   0.01628   0.0203  0.0029  1.0000  -5.8655   0.0000   0.2204
  10.000   1.1117   0.01995   0.01673   0.0209  0.0029  1.0000  -5.9586   0.0000   0.2198
  10.100   1.1178   0.02039   0.01720   0.0215  0.0029  1.0000  -6.0512   0.0000   0.2193
  10.200   1.1237   0.02084   0.01767   0.0220  0.0029  1.0000  -6.1432   0.0000   0.2188
  10.300   1.1295   0.02131   0.01815   0.0226  0.0029  1.0000  -6.2345   0.0000   0.2182
  10.400   1.1351   0.02178   0.01864   0.0232  0.0029  1.0000  -6.3250   0.0000   0.2177
  10.500   1.1405   0.02226   0.01914   0.0238  0.0029  1.0000  -6.4146   0.0000   0.2171
  10.600   1.1457   0.02275   0.01965   0.0244  0.0029  1.0000  -6.5031   0.0000   0.2165
  10.700   1.1507   0.02325   0.02017   0.0250  0.0029  1.0000  -6.5904   0.0000   0.2160
  10.800   1.1555   0.02376   0.02070   0.0256  0.0029  1.0000  -6.6764   0.0000   0.2154
  10.900   1.1599   0.02428   0.02125   0.0263  0.0029  1.0000  -6.7608   0.0000   0.2148
  11.000   1.1641   0.02481   0.02180   0.0269  0.0029  1.0000  -6.8433   0.0000   0.2142
  11.100   1.1679   0.02535   0.02236   0.0276  0.0028  1.0000  -6.9236   0.0000   0.2135
  11.200   1.1715   0.02592   0.02296   0.0282  0.0028  1.0000  -7.0028   0.0000   0.2129
  11.300   1.1724   0.02644   0.02351   0.0293  0.0028  1.0000  -7.0658   0.0000   0.2118
  11.400   1.1681   0.02684   0.02393   0.0313  0.0028  1.0000  -7.0981   0.0000   0.2099
  11.500   1.1664   0.02733   0.02445   0.0327  0.0028  1.0000  -7.1452   0.0000   0.2085
  11.600   1.1647   0.02789   0.02504   0.0338  0.0028  1.0000  -7.1905   0.0000   0.2074
  11.700   1.1635   0.02853   0.02571   0.0346  0.0028  1.0000  -7.2366   0.0000   0.2065
  11.800   1.1624   0.02926   0.02647   0.0351  0.0028  1.0000  -7.2823   0.0000   0.2059
  11.900   1.1615   0.03006   0.02730   0.0353  0.0028  1.0000  -7.3275   0.0000   0.2056
  12.000   1.1607   0.03089   0.02817   0.0353  0.0028  1.0000  -7.3720   0.0000   0.2054
  12.100   1.1602   0.03180   0.02910   0.0351  0.0028  1.0000  -7.4167   0.0000   0.2053
  12.200   1.1597   0.03276   0.03010   0.0349  0.0028  1.0000  -7.4615   0.0000   0.2054
  12.300   1.1593   0.03375   0.03113   0.0346  0.0028  1.0000  -7.5058   0.0000   0.2054
  12.400   1.1588   0.03478   0.03219   0.0343  0.0028  1.0000  -7.5491   0.0000   0.2055
  12.500   1.1582   0.03583   0.03327   0.0340  0.0028  1.0000  -7.5913   0.0000   0.2056
  12.600   1.1573   0.03690   0.03437   0.0337  0.0028  1.0000  -7.6315   0.0000   0.2056
  12.700   1.1562   0.03799   0.03549   0.0334  0.0028  1.0000  -7.6697   0.0000   0.2057
  12.800   1.1550   0.03911   0.03664   0.0330  0.0028  1.0000  -7.7062   0.0000   0.2058
  12.900   1.1535   0.04027   0.03783   0.0326  0.0028  1.0000  -7.7410   0.0000   0.2059
  13.000   1.1519   0.04146   0.03905   0.0322  0.0028  1.0000  -7.7738   0.0000   0.2060
  13.100   1.1500   0.04268   0.04031   0.0318  0.0028  1.0000  -7.8044   0.0000   0.2062
  13.200   1.1480   0.04393   0.04159   0.0314  0.0028  1.0000  -7.8331   0.0000   0.2063
  13.300   1.1457   0.04519   0.04289   0.0309  0.0028  1.0000  -7.8599   0.0000   0.2065
  13.400   1.1433   0.04648   0.04421   0.0304  0.0028  1.0000  -7.8845   0.0000   0.2067
  13.500   1.1405   0.04783   0.04559   0.0299  0.0028  1.0000  -7.9061   0.0000   0.2069
  13.600   1.1377   0.04921   0.04699   0.0293  0.0028  1.0000  -7.9266   0.0000   0.2071
  13.700   1.1348   0.05060   0.04842   0.0288  0.0028  1.0000  -7.9461   0.0000   0.2074
  13.800   1.1315   0.05206   0.04992   0.0281  0.0028  1.0000  -7.9618   0.0000   0.2077
  13.900   1.1281   0.05354   0.05142   0.0275  0.0028  1.0000  -7.9761   0.0000   0.2080
  14.000   1.1247   0.05502   0.05293   0.0268  0.0028  1.0000  -7.9895   0.0000   0.2083
  14.100   1.1208   0.05657   0.05452   0.0261  0.0028  1.0000  -7.9982   0.0000   0.2087
  14.200   1.1170   0.05814   0.05612   0.0254  0.0028  1.0000  -8.0075   0.0000   0.2091
  14.300   1.1131   0.05976   0.05777   0.0246  0.0028  1.0000  -8.0141   0.0000   0.2095
  14.400   1.1089   0.06143   0.05947   0.0238  0.0028  1.0000  -8.0179   0.0000   0.2099
  14.500   1.1048   0.06308   0.06116   0.0230  0.0028  1.0000  -8.0228   0.0000   0.2104
  14.600   1.1003   0.06484   0.06294   0.0221  0.0028  1.0000  -8.0216   0.0000   0.2109
  14.700   1.0962   0.06659   0.06473   0.0212  0.0028  1.0000  -8.0243   0.0000   0.2115
  14.800   1.0918   0.06847   0.06664   0.0202  0.0028  1.0000  -8.0218   0.0000   0.2121
  14.900   1.0876   0.07035   0.06855   0.0192  0.0028  1.0000  -8.0206   0.0000   0.2128
  15.000   1.0832   0.07229   0.07053   0.0181  0.0028  1.0000  -8.0166   0.0000   0.2135
  15.100   1.0787   0.07428   0.07255   0.0170  0.0028  1.0000  -8.0109   0.0000   0.2143
  15.200   1.0743   0.07627   0.07457   0.0159  0.0028  1.0000  -8.0046   0.0000   0.2150
  15.300   1.0695   0.07835   0.07668   0.0147  0.0028  1.0000  -7.9941   0.0000   0.2159
  15.400   1.0651   0.08041   0.07877   0.0136  0.0028  1.0000  -7.9858   0.0000   0.2167
  15.500   1.0601   0.08259   0.08099   0.0124  0.0028  1.0000  -7.9711   0.0000   0.2176
  15.600   1.0557   0.08471   0.08314   0.0112  0.0028  1.0000  -7.9605   0.0000   0.2185
  15.700   1.0506   0.08699   0.08545   0.0099  0.0028  1.0000  -7.9416   0.0000   0.2195
  15.800   1.0461   0.08916   0.08765   0.0087  0.0028  1.0000  -7.9281   0.0000   0.2205
  15.900   1.0408   0.09150   0.09002   0.0073  0.0028  1.0000  -7.9050   0.0000   0.2216
  16.000   1.0363   0.09374   0.09229   0.0060  0.0028  1.0000  -7.8886   0.0000   0.2226
  16.100   1.0309   0.09616   0.09474   0.0046  0.0028  1.0000  -7.8620   0.0000   0.2237
  16.200   1.0264   0.09845   0.09706   0.0033  0.0028  1.0000  -7.8426   0.0000   0.2248
  16.300   1.0210   0.10093   0.09958   0.0018  0.0028  1.0000  -7.8123   0.0000   0.2261
  16.400   1.0165   0.10326   0.10194   0.0005  0.0028  1.0000  -7.7898   0.0000   0.2273
  16.500   1.0110   0.10579   0.10450  -0.0010  0.0028  1.0000  -7.7554   0.0000   0.2286
  16.600   1.0064   0.10817   0.10690  -0.0024  0.0028  1.0000  -7.7289   0.0000   0.2298
  16.700   1.0010   0.11075   0.10952  -0.0040  0.0028  1.0000  -7.6913   0.0000   0.2313
  16.800   0.9964   0.11319   0.11198  -0.0055  0.0028  1.0000  -7.6608   0.0000   0.2326
  16.900   0.9911   0.11580   0.11463  -0.0071  0.0028  1.0000  -7.6199   0.0000   0.2341
  17.000   0.9864   0.11830   0.11715  -0.0086  0.0028  1.0000  -7.5845   0.0000   0.2356
  17.100   0.9812   0.12092   0.11980  -0.0102  0.0028  1.0000  -7.5405   0.0000   0.2371
  17.200   0.9763   0.12349   0.12239  -0.0118  0.0028  1.0000  -7.4983   0.0000   0.2387
  17.300   0.9713   0.12611   0.12505  -0.0135  0.0028  1.0000  -7.4522   0.0000   0.2403
  17.400   0.9662   0.12878   0.12774  -0.0151  0.0028  1.0000  -7.4024   0.0000   0.2420
  17.500   0.9614   0.13140   0.13039  -0.0168  0.0028  1.0000  -7.3541   0.0000   0.2437
  17.600   0.9561   0.13417   0.13319  -0.0185  0.0028  1.0000  -7.2955   0.0000   0.2455
  17.700   0.9515   0.13679   0.13583  -0.0202  0.0028  1.0000  -7.2439   0.0000   0.2472
  17.800   0.9459   0.13966   0.13874  -0.0220  0.0028  1.0000  -7.1754   0.0000   0.2492
  17.900   0.9410   0.14241   0.14151  -0.0238  0.0028  1.0000  -7.1124   0.0000   0.2511
  18.000   0.9358   0.14528   0.14441  -0.0256  0.0028  1.0000  -7.0405   0.0000   0.2532
  18.100   0.9302   0.14825   0.14741  -0.0275  0.0028  1.0000  -6.9596   0.0000   0.2553
  18.200   0.9252   0.15112   0.15031  -0.0294  0.0028  1.0000  -6.8827   0.0000   0.2574
  18.300   0.9195   0.15422   0.15343  -0.0314  0.0028  1.0000  -6.7890   0.0000   0.2597
  18.400   0.9135   0.15742   0.15666  -0.0334  0.0028  1.0000  -6.6845   0.0000   0.2622
  18.500   0.9075   0.16067   0.15993  -0.0355  0.0028  1.0000  -6.5729   0.0000   0.2647
  18.600   0.9014   0.16403   0.16332  -0.0376  0.0028  1.0000  -6.4497   0.0000   0.2674
  18.700   0.8947   0.16764   0.16696  -0.0399  0.0028  1.0000  -6.3031   0.0000   0.2703
  18.800   0.8869   0.17169   0.17104  -0.0424  0.0028  1.0000  -6.1167   0.0000   0.2736
  18.900   0.8777   0.17632   0.17571  -0.0451  0.0028  1.0000  -5.8719   0.0000   0.2775
  19.000   0.8618   0.18354   0.18298  -0.0491  0.0028  1.0000  -5.3624   0.0000   0.2835


