xflr5 v6.47

 Calculated polar for: 763ER

 1 1 Reynolds number fixed          Mach number fixed         

 xtrf =   1.000 (top)        1.000 (bottom)
 Mach =   0.000     Re =     6.000 e 6     Ncrit =   9.000

  alpha     CL        CD       CDp       Cm    Top Xtr Bot Xtr   Cpmin    Chinge    XCp    
 ------- -------- --------- --------- -------- ------- ------- -------- --------- ---------
 -25.000  -0.9028   0.22978   0.22899   0.0801  1.0000  0.0029  -8.3813   0.0000   0.3085
 -24.900  -0.9014   0.22866   0.22787   0.0793  1.0000  0.0029  -8.3764   0.0000   0.3079
 -24.800  -0.8999   0.22756   0.22677   0.0785  1.0000  0.0030  -8.3679   0.0000   0.3074
 -24.700  -0.8986   0.22640   0.22561   0.0777  1.0000  0.0030  -8.3670   0.0000   0.3067
 -24.600  -0.9054   0.22295   0.22213   0.0759  1.0000  0.0031  -8.7282   0.0000   0.3037
 -24.500  -0.9050   0.22155   0.22073   0.0750  1.0000  0.0031  -8.7619   0.0000   0.3028
 -24.400  -0.9039   0.22036   0.21953   0.0741  1.0000  0.0032  -8.7618   0.0000   0.3021
 -24.300  -0.9027   0.21919   0.21836   0.0733  1.0000  0.0032  -8.7574   0.0000   0.3014
 -24.200  -0.9014   0.21802   0.21718   0.0725  1.0000  0.0032  -8.7514   0.0000   0.3008
 -24.100  -0.9002   0.21684   0.21600   0.0716  1.0000  0.0032  -8.7462   0.0000   0.3001
 -24.000  -0.8991   0.21561   0.21476   0.0708  1.0000  0.0032  -8.7480   0.0000   0.2994
 -23.900  -0.9049   0.21261   0.21174   0.0691  1.0000  0.0033  -9.0169   0.0000   0.2968
 -23.800  -0.9043   0.21127   0.21039   0.0682  1.0000  0.0033  -9.0312   0.0000   0.2959
 -23.700  -0.9034   0.21001   0.20912   0.0673  1.0000  0.0033  -9.0326   0.0000   0.2952
 -23.600  -0.9023   0.20879   0.20790   0.0664  1.0000  0.0033  -9.0262   0.0000   0.2944
 -23.500  -0.9012   0.20757   0.20667   0.0656  1.0000  0.0033  -9.0187   0.0000   0.2937
 -23.400  -0.9004   0.20627   0.20537   0.0647  1.0000  0.0034  -9.0223   0.0000   0.2929
 -23.300  -0.9000   0.20487   0.20396   0.0637  1.0000  0.0034  -9.0390   0.0000   0.2920
 -23.200  -0.9069   0.20171   0.20078   0.0618  1.0000  0.0035  -9.3099   0.0000   0.2892
 -23.100  -0.9078   0.20000   0.19906   0.0607  1.0000  0.0036  -9.3659   0.0000   0.2880
 -23.000  -0.9082   0.19841   0.19747   0.0596  1.0000  0.0037  -9.4039   0.0000   0.2869
 -22.800  -0.9172   0.19337   0.19240   0.0564  1.0000  0.0038  -9.7370   0.0000   0.2826
 -22.700  -0.9191   0.19146   0.19047   0.0552  1.0000  0.0039  -9.8132   0.0000   0.2812
 -22.600  -0.9203   0.18972   0.18873   0.0540  1.0000  0.0040  -9.8627   0.0000   0.2799
 -22.500  -0.9222   0.18783   0.18683   0.0527  1.0000  0.0040  -9.9326   0.0000   0.2785
 -22.400  -0.9319   0.18424   0.18321   0.0504  1.0000  0.0040  -10.2300   0.0000   0.2753
 -22.300  -0.9338   0.18235   0.18131   0.0491  1.0000  0.0041  -10.2926   0.0000   0.2739
 -22.200  -0.9368   0.18024   0.17919   0.0477  1.0000  0.0041  -10.3818   0.0000   0.2723
 -22.100  -0.9474   0.17654   0.17545   0.0453  1.0000  0.0042  -10.6810   0.0000   0.2690
 -22.000  -0.9507   0.17438   0.17329   0.0438  1.0000  0.0042  -10.7709   0.0000   0.2673
 -21.900  -0.9627   0.17046   0.16933   0.0412  1.0000  0.0042  -11.0888   0.0000   0.2639
 -21.800  -0.9676   0.16801   0.16686   0.0395  1.0000  0.0042  -11.2094   0.0000   0.2620
 -21.700  -0.9814   0.16378   0.16259   0.0366  1.0000  0.0042  -11.5539   0.0000   0.2584
 -21.600  -0.9877   0.16107   0.15986   0.0347  1.0000  0.0042  -11.6995   0.0000   0.2563
 -21.500  -1.0045   0.15632   0.15506   0.0314  1.0000  0.0042  -12.0965   0.0000   0.2524
 -21.400  -1.0137   0.15309   0.15180   0.0292  1.0000  0.0042  -12.2981   0.0000   0.2499
 -21.300  -1.0336   0.14782   0.14648   0.0255  1.0000  0.0042  -12.7426   0.0000   0.2457
 -21.200  -1.0571   0.14191   0.14050   0.0213  1.0000  0.0041  -13.2545   0.0000   0.2411
 -21.100  -1.0847   0.13532   0.13384   0.0166  1.0000  0.0040  -13.8361   0.0000   0.2362
 -21.000  -1.1275   0.12603   0.12444   0.0100  1.0000  0.0039  -14.7188   0.0000   0.2296
 -20.900  -1.1763   0.11579   0.11407   0.0027  1.0000  0.0037  -15.6859   0.0000   0.2230
 -20.800  -1.2402   0.10305   0.10115  -0.0063  1.0000  0.0034  -16.9069   0.0000   0.2156
 -20.700  -1.3316   0.08589   0.08376  -0.0182  1.0000  0.0033  -18.5916   0.0000   0.2070
 -20.600  -1.3862   0.07553   0.07325  -0.0252  1.0000  0.0032  -19.5253   0.0000   0.2027
 -20.500  -1.4211   0.06873   0.06634  -0.0297  1.0000  0.0032  -20.0722   0.0000   0.2002
 -20.400  -1.4462   0.06370   0.06123  -0.0329  1.0000  0.0032  -20.4297   0.0000   0.1986
 -20.300  -1.4668   0.05947   0.05693  -0.0355  1.0000  0.0032  -20.6996   0.0000   0.1974
 -20.200  -1.4839   0.05586   0.05325  -0.0377  1.0000  0.0032  -20.9030   0.0000   0.1964
 -20.100  -1.4986   0.05270   0.05004  -0.0395  1.0000  0.0032  -21.0586   0.0000   0.1957
 -20.000  -1.5115   0.04990   0.04717  -0.0410  1.0000  0.0032  -21.1787   0.0000   0.1952
 -19.900  -1.5228   0.04737   0.04460  -0.0423  1.0000  0.0032  -21.2683   0.0000   0.1948
 -19.800  -1.5327   0.04510   0.04228  -0.0434  1.0000  0.0032  -21.3311   0.0000   0.1946
 -19.700  -1.5416   0.04303   0.04017  -0.0442  1.0000  0.0032  -21.3746   0.0000   0.1944
 -19.600  -1.5498   0.04112   0.03822  -0.0449  1.0000  0.0032  -21.4033   0.0000   0.1944
 -19.500  -1.5573   0.03937   0.03642  -0.0455  1.0000  0.0032  -21.4190   0.0000   0.1944
 -19.400  -1.5643   0.03777   0.03478  -0.0459  1.0000  0.0032  -21.4219   0.0000   0.1945
 -19.300  -1.5707   0.03631   0.03329  -0.0461  1.0000  0.0032  -21.4137   0.0000   0.1947
 -19.200  -1.5767   0.03497   0.03191  -0.0461  1.0000  0.0032  -21.3968   0.0000   0.1951
 -19.100  -1.5822   0.03374   0.03064  -0.0460  1.0000  0.0032  -21.3694   0.0000   0.1955
 -19.000  -1.5874   0.03260   0.02947  -0.0458  1.0000  0.0032  -21.3359   0.0000   0.1959
 -18.900  -1.5922   0.03156   0.02839  -0.0454  1.0000  0.0032  -21.2946   0.0000   0.1965
 -18.800  -1.5967   0.03060   0.02740  -0.0449  1.0000  0.0032  -21.2461   0.0000   0.1971
 -18.700  -1.6007   0.02972   0.02649  -0.0443  1.0000  0.0032  -21.1901   0.0000   0.1977
 -18.600  -1.6044   0.02891   0.02565  -0.0436  1.0000  0.0032  -21.1276   0.0000   0.1984
 -18.500  -1.6080   0.02816   0.02487  -0.0428  1.0000  0.0032  -21.0629   0.0000   0.1992
 -18.400  -1.6115   0.02746   0.02414  -0.0419  1.0000  0.0032  -20.9947   0.0000   0.2000
 -18.300  -1.6140   0.02684   0.02349  -0.0410  1.0000  0.0033  -20.9128   0.0000   0.2008
 -18.200  -1.6170   0.02622   0.02285  -0.0399  1.0000  0.0033  -20.8370   0.0000   0.2017
 -18.100  -1.6190   0.02568   0.02228  -0.0389  1.0000  0.0033  -20.7458   0.0000   0.2026
 -18.000  -1.6215   0.02516   0.02173  -0.0377  1.0000  0.0033  -20.6612   0.0000   0.2036
 -17.900  -1.6228   0.02469   0.02124  -0.0365  1.0000  0.0033  -20.5602   0.0000   0.2045
 -17.800  -1.6252   0.02424   0.02076  -0.0352  1.0000  0.0033  -20.4715   0.0000   0.2055
 -17.700  -1.6258   0.02385   0.02035  -0.0340  1.0000  0.0033  -20.3607   0.0000   0.2065
 -17.600  -1.6272   0.02347   0.01994  -0.0326  1.0000  0.0033  -20.2595   0.0000   0.2075
 -17.500  -1.6287   0.02310   0.01955  -0.0311  1.0000  0.0033  -20.1583   0.0000   0.2086
 -17.400  -1.6288   0.02276   0.01919  -0.0298  1.0000  0.0033  -20.0387   0.0000   0.2096
 -17.300  -1.6299   0.02244   0.01885  -0.0282  1.0000  0.0033  -19.9317   0.0000   0.2108
 -17.200  -1.6320   0.02211   0.01849  -0.0264  1.0000  0.0033  -19.8375   0.0000   0.2121
 -17.100  -1.6318   0.02181   0.01818  -0.0249  1.0000  0.0034  -19.7148   0.0000   0.2132
 -17.000  -1.6318   0.02153   0.01788  -0.0233  1.0000  0.0034  -19.5952   0.0000   0.2143
 -16.900  -1.6329   0.02128   0.01760  -0.0215  1.0000  0.0034  -19.4877   0.0000   0.2156
 -16.800  -1.6366   0.02107   0.01736  -0.0191  1.0000  0.0035  -19.4093   0.0000   0.2172
 -16.700  -1.6393   0.02085   0.01713  -0.0169  1.0000  0.0035  -19.3202   0.0000   0.2188
 -16.600  -1.6361   0.02058   0.01684  -0.0158  1.0000  0.0036  -19.1624   0.0000   0.2196
 -16.500  -1.6322   0.02031   0.01655  -0.0148  1.0000  0.0036  -18.9971   0.0000   0.2204
 -16.400  -1.6279   0.02005   0.01627  -0.0138  1.0000  0.0037  -18.8274   0.0000   0.2212
 -16.300  -1.6232   0.01978   0.01599  -0.0129  1.0000  0.0038  -18.6540   0.0000   0.2219
 -16.200  -1.6182   0.01952   0.01571  -0.0121  1.0000  0.0039  -18.4773   0.0000   0.2225
 -16.100  -1.6128   0.01925   0.01543  -0.0112  1.0000  0.0039  -18.2976   0.0000   0.2232
 -16.000  -1.6072   0.01900   0.01516  -0.0105  1.0000  0.0040  -18.1153   0.0000   0.2238
 -15.900  -1.6012   0.01875   0.01490  -0.0097  1.0000  0.0041  -17.9299   0.0000   0.2244
 -15.800  -1.5950   0.01850   0.01464  -0.0091  1.0000  0.0041  -17.7421   0.0000   0.2250
 -15.700  -1.5885   0.01826   0.01438  -0.0084  1.0000  0.0042  -17.5523   0.0000   0.2256
 -15.600  -1.5818   0.01803   0.01414  -0.0078  1.0000  0.0043  -17.3605   0.0000   0.2262
 -15.500  -1.5749   0.01780   0.01390  -0.0072  1.0000  0.0043  -17.1670   0.0000   0.2267
 -15.400  -1.5677   0.01758   0.01367  -0.0066  1.0000  0.0044  -16.9720   0.0000   0.2272
 -15.300  -1.5604   0.01736   0.01344  -0.0061  1.0000  0.0045  -16.7757   0.0000   0.2277
 -15.200  -1.5529   0.01716   0.01322  -0.0055  1.0000  0.0045  -16.5783   0.0000   0.2282
 -15.100  -1.5452   0.01695   0.01301  -0.0050  1.0000  0.0046  -16.3798   0.0000   0.2287
 -15.000  -1.5373   0.01676   0.01280  -0.0046  1.0000  0.0046  -16.1807   0.0000   0.2292
 -14.900  -1.5293   0.01656   0.01260  -0.0041  1.0000  0.0047  -15.9811   0.0000   0.2296
 -14.800  -1.5212   0.01638   0.01240  -0.0036  1.0000  0.0047  -15.7812   0.0000   0.2301
 -14.700  -1.5129   0.01619   0.01221  -0.0032  1.0000  0.0047  -15.5810   0.0000   0.2305
 -14.600  -1.5045   0.01601   0.01202  -0.0028  1.0000  0.0048  -15.3806   0.0000   0.2310
 -14.500  -1.4961   0.01584   0.01183  -0.0024  1.0000  0.0048  -15.1803   0.0000   0.2314
 -14.400  -1.4875   0.01566   0.01165  -0.0020  1.0000  0.0048  -14.9800   0.0000   0.2318
 -14.300  -1.4788   0.01550   0.01147  -0.0016  1.0000  0.0049  -14.7797   0.0000   0.2323
 -14.200  -1.4701   0.01533   0.01129  -0.0013  1.0000  0.0049  -14.5797   0.0000   0.2327
 -14.100  -1.4612   0.01517   0.01112  -0.0009  1.0000  0.0049  -14.3800   0.0000   0.2331
 -14.000  -1.4523   0.01501   0.01095  -0.0006  1.0000  0.0049  -14.1807   0.0000   0.2335
 -13.900  -1.4433   0.01485   0.01079  -0.0002  1.0000  0.0049  -13.9818   0.0000   0.2339
 -13.800  -1.4342   0.01470   0.01062   0.0001  1.0000  0.0049  -13.7834   0.0000   0.2343
 -13.700  -1.4251   0.01454   0.01045   0.0004  1.0000  0.0050  -13.5869   0.0000   0.2347
 -13.600  -1.4162   0.01435   0.01026   0.0008  1.0000  0.0051  -13.3946   0.0000   0.2351
 -13.500  -1.4073   0.01417   0.01007   0.0011  1.0000  0.0052  -13.2026   0.0000   0.2355
 -13.400  -1.3982   0.01399   0.00988   0.0015  1.0000  0.0053  -13.0109   0.0000   0.2359
 -13.300  -1.3891   0.01382   0.00970   0.0018  1.0000  0.0055  -12.8198   0.0000   0.2363
 -13.200  -1.3799   0.01364   0.00952   0.0021  1.0000  0.0056  -12.6293   0.0000   0.2367
 -13.100  -1.3707   0.01347   0.00934   0.0024  1.0000  0.0057  -12.4393   0.0000   0.2371
 -13.000  -1.3614   0.01330   0.00917   0.0027  1.0000  0.0059  -12.2498   0.0000   0.2375
 -12.900  -1.3520   0.01314   0.00900   0.0030  1.0000  0.0060  -12.0607   0.0000   0.2379
 -12.800  -1.3426   0.01298   0.00884   0.0033  1.0000  0.0061  -11.8720   0.0000   0.2383
 -12.700  -1.3330   0.01283   0.00868   0.0036  1.0000  0.0062  -11.6838   0.0000   0.2386
 -12.600  -1.3234   0.01268   0.00853   0.0038  1.0000  0.0063  -11.4961   0.0000   0.2390
 -12.500  -1.3137   0.01254   0.00838   0.0041  1.0000  0.0064  -11.3090   0.0000   0.2394
 -12.400  -1.3039   0.01240   0.00824   0.0043  1.0000  0.0065  -11.1224   0.0000   0.2397
 -12.300  -1.2941   0.01227   0.00810   0.0046  1.0000  0.0066  -10.9365   0.0000   0.2401
 -12.200  -1.2842   0.01214   0.00797   0.0048  1.0000  0.0067  -10.7514   0.0000   0.2405
 -12.100  -1.2759   0.01236   0.00783   0.0054  0.8171  0.0067  -10.5813   0.0000   0.2411
 -11.900  -1.2567   0.01238   0.00754   0.0059  0.6773  0.0068  -10.2245   0.0000   0.2418
 -11.800  -1.2467   0.01229   0.00742   0.0061  0.6623  0.0069  -10.0434   0.0000   0.2422
 -11.700  -1.2366   0.01221   0.00730   0.0063  0.6502  0.0069  -9.8632   0.0000   0.2425
 -11.600  -1.2264   0.01211   0.00718   0.0064  0.6410  0.0069  -9.6838   0.0000   0.2429
 -11.500  -1.2163   0.01201   0.00705   0.0066  0.6328  0.0070  -9.5069   0.0000   0.2432
 -11.400  -1.2063   0.01188   0.00690   0.0069  0.6256  0.0072  -9.3337   0.0000   0.2436
 -11.300  -1.1963   0.01176   0.00676   0.0071  0.6191  0.0074  -9.1613   0.0000   0.2439
 -11.200  -1.1862   0.01163   0.00662   0.0073  0.6137  0.0077  -9.0158   0.0000   0.2443
 -11.100  -1.1761   0.01151   0.00648   0.0075  0.6076  0.0079  -8.8768   0.0000   0.2447
 -11.000  -1.1660   0.01139   0.00635   0.0077  0.6029  0.0081  -8.7378   0.0000   0.2450
 -10.900  -1.1558   0.01128   0.00622   0.0079  0.5976  0.0083  -8.5993   0.0000   0.2454
 -10.800  -1.1455   0.01117   0.00610   0.0080  0.5917  0.0084  -8.4612   0.0000   0.2457
 -10.700  -1.1352   0.01106   0.00598   0.0082  0.5875  0.0086  -8.3235   0.0000   0.2461
 -10.600  -1.1248   0.01096   0.00587   0.0084  0.5821  0.0088  -8.1864   0.0000   0.2464
 -10.500  -1.1144   0.01087   0.00576   0.0085  0.5770  0.0089  -8.0499   0.0000   0.2468
 -10.400  -1.1039   0.01078   0.00566   0.0087  0.5730  0.0090  -7.9139   0.0000   0.2471
 -10.300  -1.0934   0.01069   0.00556   0.0088  0.5682  0.0091  -7.7786   0.0000   0.2474
 -10.200  -1.0828   0.01061   0.00546   0.0090  0.5631  0.0092  -7.6441   0.0000   0.2478
 -10.100  -1.0722   0.01053   0.00536   0.0091  0.5594  0.0092  -7.5102   0.0000   0.2481
 -10.000  -1.0616   0.01045   0.00527   0.0092  0.5546  0.0093  -7.3771   0.0000   0.2485
  -9.900  -1.0509   0.01038   0.00518   0.0094  0.5492  0.0093  -7.2448   0.0000   0.2488
  -9.800  -1.0404   0.01027   0.00506   0.0095  0.5458  0.0096  -7.1161   0.0000   0.2491
  -9.700  -1.0299   0.01017   0.00495   0.0097  0.5415  0.0100  -6.9883   0.0000   0.2495
  -9.600  -1.0194   0.01007   0.00484   0.0098  0.5365  0.0103  -6.8610   0.0000   0.2499
  -9.500  -1.0088   0.00997   0.00473   0.0100  0.5330  0.0107  -6.7341   0.0000   0.2502
  -9.400  -0.9982   0.00987   0.00463   0.0101  0.5292  0.0110  -6.6076   0.0000   0.2506
  -9.300  -0.9876   0.00979   0.00453   0.0102  0.5246  0.0113  -6.4818   0.0000   0.2510
  -9.200  -0.9769   0.00971   0.00444   0.0104  0.5199  0.0115  -6.3564   0.0000   0.2513
  -9.100  -0.9661   0.00963   0.00436   0.0105  0.5167  0.0117  -6.2316   0.0000   0.2517
  -9.000  -0.9553   0.00956   0.00427   0.0106  0.5127  0.0119  -6.1076   0.0000   0.2520
  -8.900  -0.9444   0.00950   0.00419   0.0107  0.5080  0.0120  -5.9887   0.0000   0.2524
  -8.800  -0.9336   0.00943   0.00412   0.0108  0.5046  0.0121  -5.8742   0.0000   0.2527
  -8.700  -0.9228   0.00935   0.00403   0.0109  0.5013  0.0124  -5.7623   0.0000   0.2531
  -8.600  -0.9120   0.00926   0.00393   0.0110  0.4973  0.0131  -5.6523   0.0000   0.2535
  -8.500  -0.9013   0.00917   0.00383   0.0112  0.4925  0.0137  -5.5425   0.0000   0.2539
  -8.400  -0.8905   0.00908   0.00374   0.0113  0.4895  0.0142  -5.4328   0.0000   0.2542
  -8.300  -0.8797   0.00901   0.00367   0.0114  0.4862  0.0145  -5.3234   0.0000   0.2546
  -8.200  -0.8687   0.00895   0.00359   0.0115  0.4823  0.0148  -5.2147   0.0000   0.2550
  -8.100  -0.8578   0.00889   0.00352   0.0116  0.4779  0.0150  -5.1066   0.0000   0.2554
  -8.000  -0.8468   0.00883   0.00345   0.0116  0.4752  0.0152  -4.9992   0.0000   0.2558
  -7.900  -0.8357   0.00877   0.00339   0.0117  0.4722  0.0153  -4.8924   0.0000   0.2561
  -7.800  -0.8248   0.00870   0.00330   0.0118  0.4685  0.0159  -4.7886   0.0000   0.2565
  -7.700  -0.8139   0.00862   0.00322   0.0119  0.4640  0.0167  -4.6854   0.0000   0.2570
  -7.600  -0.8030   0.00855   0.00314   0.0120  0.4611  0.0173  -4.5824   0.0000   0.2574
  -7.500  -0.7920   0.00848   0.00307   0.0121  0.4584  0.0178  -4.4800   0.0000   0.2578
  -7.400  -0.7810   0.00842   0.00300   0.0122  0.4551  0.0183  -4.3780   0.0000   0.2582
  -7.300  -0.7699   0.00836   0.00294   0.0123  0.4514  0.0186  -4.2768   0.0000   0.2586
  -7.200  -0.7588   0.00832   0.00288   0.0123  0.4477  0.0188  -4.1761   0.0000   0.2590
  -7.100  -0.7478   0.00825   0.00281   0.0124  0.4455  0.0196  -4.0774   0.0000   0.2595
  -7.000  -0.7368   0.00818   0.00274   0.0125  0.4426  0.0206  -3.9844   0.0000   0.2599
  -6.900  -0.7257   0.00811   0.00267   0.0126  0.4391  0.0213  -3.8948   0.0000   0.2604
  -6.800  -0.7147   0.00806   0.00261   0.0127  0.4350  0.0220  -3.8057   0.0000   0.2609
  -6.700  -0.7035   0.00801   0.00255   0.0127  0.4326  0.0225  -3.7169   0.0000   0.2613
  -6.600  -0.6923   0.00796   0.00250   0.0128  0.4304  0.0228  -3.6286   0.0000   0.2618
  -6.500  -0.6812   0.00791   0.00244   0.0129  0.4277  0.0236  -3.5418   0.0000   0.2623
  -6.400  -0.6701   0.00784   0.00237   0.0130  0.4245  0.0248  -3.4561   0.0000   0.2628
  -6.300  -0.6590   0.00779   0.00231   0.0130  0.4205  0.0258  -3.3709   0.0000   0.2633
  -6.200  -0.6478   0.00773   0.00226   0.0131  0.4183  0.0266  -3.2861   0.0000   0.2638
  -6.100  -0.6366   0.00769   0.00221   0.0131  0.4161  0.0271  -3.2017   0.0000   0.2643
  -6.000  -0.6254   0.00764   0.00216   0.0132  0.4134  0.0283  -3.1186   0.0000   0.2649
  -5.900  -0.6143   0.00757   0.00210   0.0133  0.4105  0.0299  -3.0367   0.0000   0.2654
  -5.800  -0.6031   0.00752   0.00204   0.0133  0.4070  0.0310  -2.9551   0.0000   0.2660
  -5.700  -0.5919   0.00748   0.00199   0.0134  0.4046  0.0318  -2.8744   0.0000   0.2666
  -5.600  -0.5806   0.00744   0.00195   0.0134  0.4028  0.0326  -2.8005   0.0000   0.2672
  -5.500  -0.5694   0.00738   0.00190   0.0135  0.4006  0.0345  -2.7278   0.0000   0.2678
  -5.400  -0.5582   0.00733   0.00184   0.0136  0.3978  0.0359  -2.6556   0.0000   0.2685
  -5.300  -0.5470   0.00729   0.00180   0.0136  0.3946  0.0370  -2.5838   0.0000   0.2691
  -5.100  -0.5245   0.00719   0.00171   0.0137  0.3898  0.0404  -2.4425   0.0000   0.2705
  -5.000  -0.5132   0.00714   0.00166   0.0138  0.3881  0.0422  -2.3728   0.0000   0.2712
  -4.900  -0.5019   0.00710   0.00162   0.0138  0.3860  0.0433  -2.3034   0.0000   0.2720
  -4.800  -0.4906   0.00706   0.00158   0.0138  0.3835  0.0457  -2.2352   0.0000   0.2728
  -4.700  -0.4794   0.00701   0.00154   0.0139  0.3805  0.0478  -2.1700   0.0000   0.2736
  -4.500  -0.4567   0.00694   0.00146   0.0140  0.3759  0.0511  -2.0471   0.0000   0.2753
  -4.400  -0.4454   0.00688   0.00142   0.0140  0.3742  0.0539  -1.9870   0.0000   0.2763
  -4.300  -0.4341   0.00685   0.00138   0.0140  0.3722  0.0560  -1.9270   0.0000   0.2772
  -4.200  -0.4228   0.00681   0.00135   0.0141  0.3700  0.0586  -1.8677   0.0000   0.2782
  -4.100  -0.4115   0.00676   0.00131   0.0141  0.3675  0.0615  -1.8092   0.0000   0.2793
  -4.000  -0.4001   0.00673   0.00128   0.0142  0.3645  0.0634  -1.7509   0.0000   0.2804
  -3.900  -0.3887   0.00670   0.00125   0.0142  0.3627  0.0658  -1.6980   0.0000   0.2816
  -3.800  -0.3774   0.00665   0.00121   0.0142  0.3614  0.0690  -1.6457   0.0000   0.2828
  -3.700  -0.3660   0.00662   0.00118   0.0143  0.3596  0.0713  -1.5937   0.0000   0.2841
  -3.600  -0.3547   0.00658   0.00115   0.0143  0.3575  0.0747  -1.5424   0.0000   0.2855
  -3.500  -0.3433   0.00654   0.00112   0.0143  0.3552  0.0779  -1.4916   0.0000   0.2870
  -3.400  -0.3319   0.00652   0.00109   0.0143  0.3526  0.0798  -1.4413   0.0000   0.2885
  -3.300  -0.3205   0.00650   0.00107   0.0144  0.3499  0.0827  -1.3954   0.0000   0.2902
  -3.200  -0.3091   0.00645   0.00104   0.0144  0.3488  0.0864  -1.3500   0.0000   0.2919
  -3.100  -0.2977   0.00642   0.00102   0.0144  0.3476  0.0888  -1.3048   0.0000   0.2938
  -3.000  -0.2863   0.00639   0.00099   0.0144  0.3460  0.0927  -1.2602   0.0000   0.2959
  -2.900  -0.2749   0.00635   0.00097   0.0145  0.3440  0.0960  -1.2166   0.0000   0.2981
  -2.800  -0.2634   0.00634   0.00095   0.0145  0.3418  0.0982  -1.1761   0.0000   0.3005
  -2.700  -0.2520   0.00631   0.00092   0.0145  0.3392  0.1030  -1.1363   0.0000   0.3031
  -2.500  -0.2291   0.00625   0.00088   0.0145  0.3353  0.1100  -1.0573   0.0000   0.3091
  -2.400  -0.2177   0.00621   0.00086   0.0146  0.3343  0.1149  -1.0214   0.0000   0.3126
  -2.300  -0.2063   0.00619   0.00084   0.0146  0.3329  0.1184  -0.9857   0.0000   0.3164
  -2.200  -0.1949   0.00615   0.00082   0.0146  0.3312  0.1247  -0.9505   0.0000   0.3206
  -2.100  -0.1834   0.00612   0.00080   0.0146  0.3292  0.1287  -0.9160   0.0000   0.3254
  -2.000  -0.1720   0.00610   0.00079   0.0146  0.3269  0.1346  -0.8841   0.0000   0.3308
  -1.900  -0.1606   0.00607   0.00077   0.0146  0.3241  0.1398  -0.8523   0.0000   0.3370
  -1.800  -0.1492   0.00603   0.00075   0.0147  0.3224  0.1472  -0.8209   0.0000   0.3441
  -1.700  -0.1377   0.00601   0.00073   0.0147  0.3214  0.1520  -0.7913   0.0000   0.3524
  -1.600  -0.1263   0.00596   0.00072   0.0147  0.3201  0.1603  -0.7627   0.0000   0.3622
  -1.500  -0.1149   0.00593   0.00070   0.0147  0.3186  0.1678  -0.7342   0.0000   0.3740
  -1.400  -0.1035   0.00590   0.00069   0.0147  0.3169  0.1751  -0.7070   0.0000   0.3883
  -1.300  -0.0921   0.00586   0.00067   0.0147  0.3149  0.1840  -0.6810   0.0000   0.4060
  -1.200  -0.0807   0.00583   0.00066   0.0147  0.3125  0.1928  -0.6552   0.0000   0.4289
  -1.000  -0.0579   0.00576   0.00064   0.0148  0.3090  0.2118  -0.6633   0.0000   0.5015
  -0.900  -0.0464   0.00572   0.00062   0.0148  0.3079  0.2223  -0.6756   0.0000   0.5646
  -0.800  -0.0350   0.00568   0.00061   0.0148  0.3064  0.2333  -0.6880   0.0000   0.6686
  -0.700  -0.0236   0.00565   0.00060   0.0148  0.3047  0.2440  -0.7004   0.0000   0.8733
  -0.600  -0.0122   0.00562   0.00059   0.0148  0.3028  0.2543  -0.7128   0.0000   1.4609
  -0.500  -0.0008   0.00558   0.00059   0.0148  0.3008  0.2664  -0.7252   0.0000  18.1189
  -0.400   0.0105   0.00555   0.00058   0.0148  0.2984  0.2792  -0.7377   0.0000  -1.1627
  -0.300   0.0220   0.00551   0.00057   0.0148  0.2967  0.2913  -0.7502   0.0000  -0.4311
  -0.200   0.0334   0.00547   0.00057   0.0148  0.2959  0.3031  -0.7628   0.0000  -0.1996
  -0.100   0.0448   0.00543   0.00056   0.0149  0.2947  0.3154  -0.7754   0.0000  -0.0862
   0.000   0.0562   0.00540   0.00056   0.0149  0.2932  0.3272  -0.7885   0.0000  -0.0187
   0.100   0.0677   0.00538   0.00056   0.0149  0.2914  0.3375  -0.8018   0.0000   0.0260
   0.200   0.0791   0.00536   0.00055   0.0149  0.2893  0.3491  -0.8150   0.0000   0.0577
   0.300   0.0905   0.00533   0.00055   0.0149  0.2870  0.3609  -0.8283   0.0000   0.0813
   0.400   0.1020   0.00531   0.00056   0.0149  0.2846  0.3719  -0.8416   0.0000   0.0998
   0.500   0.1135   0.00529   0.00056   0.0149  0.2838  0.3813  -0.8550   0.0000   0.1146
   0.600   0.1250   0.00527   0.00056   0.0149  0.2829  0.3909  -0.8685   0.0000   0.1267
   0.700   0.1364   0.00525   0.00056   0.0149  0.2818  0.4010  -0.8820   0.0000   0.1367
   0.800   0.1479   0.00523   0.00056   0.0149  0.2803  0.4113  -0.8955   0.0000   0.1451
   0.900   0.1594   0.00521   0.00057   0.0149  0.2786  0.4214  -0.9091   0.0000   0.1524
   1.000   0.1708   0.00520   0.00057   0.0149  0.2767  0.4316  -0.9230   0.0000   0.1586
   1.100   0.1823   0.00520   0.00058   0.0148  0.2742  0.4401  -0.9372   0.0000   0.1641
   1.200   0.1938   0.00519   0.00059   0.0148  0.2721  0.4498  -0.9514   0.0000   0.1690
   1.300   0.2053   0.00516   0.00059   0.0148  0.2713  0.4609  -0.9657   0.0000   0.1732
   1.400   0.2168   0.00514   0.00060   0.0148  0.2703  0.4711  -0.9801   0.0000   0.1771
   1.500   0.2283   0.00513   0.00061   0.0148  0.2691  0.4816  -0.9945   0.0000   0.1805
   1.600   0.2398   0.00512   0.00061   0.0148  0.2677  0.4921  -1.0089   0.0000   0.1836
   1.700   0.2512   0.00510   0.00062   0.0148  0.2662  0.5040  -1.0233   0.0000   0.1864
   1.800   0.2626   0.00509   0.00064   0.0148  0.2645  0.5158  -1.0377   0.0000   0.1890
   1.900   0.2741   0.00508   0.00065   0.0148  0.2623  0.5278  -1.0522   0.0000   0.1913
   2.000   0.2855   0.00507   0.00066   0.0148  0.2601  0.5402  -1.0668   0.0000   0.1935
   2.100   0.2970   0.00504   0.00067   0.0148  0.2595  0.5535  -1.0820   0.0000   0.1954
   2.200   0.3084   0.00502   0.00068   0.0148  0.2585  0.5675  -1.0973   0.0000   0.1973
   2.300   0.3198   0.00499   0.00069   0.0148  0.2571  0.5830  -1.1125   0.0000   0.1989
   2.400   0.3311   0.00498   0.00071   0.0148  0.2538  0.6004  -1.1277   0.0000   0.2005
   2.500   0.3423   0.00497   0.00073   0.0148  0.2483  0.6208  -1.1428   0.0000   0.2018
   2.600   0.3535   0.00493   0.00074   0.0149  0.2459  0.6440  -1.1581   0.0000   0.2031
   2.700   0.3647   0.00489   0.00076   0.0149  0.2430  0.6690  -1.1733   0.0000   0.2043
   2.800   0.3759   0.00486   0.00078   0.0149  0.2405  0.6935  -1.1886   0.0000   0.2054
   2.900   0.3870   0.00483   0.00081   0.0150  0.2374  0.7168  -1.2039   0.0000   0.2064
   3.000   0.3983   0.00479   0.00082   0.0150  0.2359  0.7387  -1.2193   0.0000   0.2073
   3.100   0.4095   0.00476   0.00084   0.0150  0.2343  0.7585  -1.2347   0.0000   0.2082
   3.200   0.4207   0.00474   0.00086   0.0151  0.2320  0.7771  -1.2508   0.0000   0.2090
   3.300   0.4318   0.00472   0.00089   0.0151  0.2292  0.7962  -1.2668   0.0000   0.2098
   3.400   0.4429   0.00472   0.00092   0.0152  0.2256  0.8118  -1.2830   0.0000   0.2105
   3.500   0.4541   0.00470   0.00094   0.0153  0.2242  0.8272  -1.2992   0.0000   0.2111
   3.600   0.4652   0.00469   0.00096   0.0153  0.2219  0.8428  -1.3154   0.0000   0.2117
   3.700   0.4761   0.00471   0.00100   0.0154  0.2171  0.8561  -1.3315   0.0000   0.2122
   3.800   0.4871   0.00472   0.00104   0.0155  0.2130  0.8697  -1.3477   0.0000   0.2127
   3.900   0.4979   0.00473   0.00107   0.0157  0.2090  0.8837  -1.3638   0.0000   0.2130
   4.000   0.5090   0.00478   0.00111   0.0157  0.2036  0.8914  -1.3801   0.0000   0.2136
   4.100   0.5194   0.00480   0.00116   0.0159  0.1981  0.9072  -1.3959   0.0000   0.2137
   4.200   0.5301   0.00485   0.00120   0.0161  0.1917  0.9182  -1.4120   0.0000   0.2140
   4.300   0.5411   0.00492   0.00126   0.0161  0.1848  0.9239  -1.4284   0.0000   0.2144
   4.400   0.5517   0.00500   0.00132   0.0163  0.1763  0.9360  -1.4450   0.0000   0.2147
   4.500   0.5620   0.00513   0.00142   0.0165  0.1627  0.9475  -1.4613   0.0000   0.2148
   4.600   0.5723   0.00534   0.00155   0.0166  0.1435  0.9552  -1.5076   0.0000   0.2150
   4.700   0.5784   0.00661   0.00232   0.0170  0.0151  0.9601  -1.5617   0.0000   0.2146
   4.800   0.5904   0.00674   0.00242   0.0168  0.0055  0.9672  -1.6499   0.0000   0.2155
   4.900   0.6035   0.00681   0.00248   0.0164  0.0028  0.9744  -1.7305   0.0000   0.2167
   5.000   0.6165   0.00687   0.00254   0.0161  0.0026  0.9796  -1.8201   0.0000   0.2178
   5.100   0.6293   0.00694   0.00260   0.0157  0.0024  0.9836  -1.9104   0.0000   0.2187
   5.200   0.6418   0.00700   0.00266   0.0155  0.0023  0.9865  -2.0021   0.0000   0.2196
   5.300   0.6542   0.00706   0.00272   0.0153  0.0023  0.9886  -2.0948   0.0000   0.2203
   5.400   0.6663   0.00713   0.00278   0.0151  0.0022  0.9902  -2.1887   0.0000   0.2209
   5.500   0.6784   0.00720   0.00285   0.0149  0.0022  0.9914  -2.2840   0.0000   0.2215
   5.600   0.6905   0.00727   0.00292   0.0147  0.0021  0.9925  -2.3803   0.0000   0.2220
   5.700   0.7024   0.00734   0.00299   0.0146  0.0021  0.9934  -2.4776   0.0000   0.2225
   5.800   0.7144   0.00741   0.00306   0.0144  0.0021  0.9942  -2.5760   0.0000   0.2230
   5.900   0.7263   0.00748   0.00313   0.0143  0.0021  0.9949  -2.6755   0.0000   0.2234
   6.000   0.7381   0.00756   0.00320   0.0142  0.0021  0.9955  -2.7760   0.0000   0.2239
   6.100   0.7500   0.00764   0.00328   0.0140  0.0021  0.9961  -2.8775   0.0000   0.2243
   6.200   0.7618   0.00772   0.00336   0.0139  0.0021  0.9965  -2.9799   0.0000   0.2246
   6.300   0.7737   0.00780   0.00345   0.0138  0.0021  0.9969  -3.0831   0.0000   0.2250
   6.400   0.7855   0.00789   0.00354   0.0136  0.0021  0.9973  -3.1872   0.0000   0.2253
   6.500   0.7973   0.00798   0.00363   0.0135  0.0021  0.9976  -3.2920   0.0000   0.2257
   6.600   0.8091   0.00807   0.00372   0.0134  0.0021  0.9979  -3.3974   0.0000   0.2260
   6.700   0.8209   0.00817   0.00382   0.0132  0.0021  0.9982  -3.5034   0.0000   0.2263
   6.800   0.8327   0.00827   0.00393   0.0131  0.0021  0.9984  -3.6101   0.0000   0.2266
   6.900   0.8446   0.00837   0.00403   0.0129  0.0021  0.9987  -3.7176   0.0000   0.2269
   7.000   0.8566   0.00848   0.00415   0.0128  0.0021  0.9989  -3.8258   0.0000   0.2272
   7.100   0.8686   0.00859   0.00427   0.0126  0.0021  0.9990  -3.9348   0.0000   0.2276
   7.200   0.8806   0.00871   0.00440   0.0124  0.0021  0.9992  -4.0443   0.0000   0.2279
   7.300   0.8927   0.00884   0.00453   0.0121  0.0021  0.9994  -4.1543   0.0000   0.2282
   7.400   0.9047   0.00897   0.00467   0.0119  0.0021  0.9995  -4.2644   0.0000   0.2285
   7.500   0.9168   0.00911   0.00482   0.0117  0.0021  0.9996  -4.3747   0.0000   0.2288
   7.600   0.9288   0.00925   0.00498   0.0115  0.0021  0.9997  -4.4847   0.0000   0.2291
   7.700   0.9407   0.00940   0.00515   0.0113  0.0021  0.9998  -4.5943   0.0000   0.2294
   7.800   0.9526   0.00957   0.00533   0.0111  0.0021  0.9999  -4.7033   0.0000   0.2296
   7.900   0.9644   0.00974   0.00552   0.0109  0.0022  0.9999  -4.8118   0.0000   0.2299
   8.000   0.9759   0.00992   0.00572   0.0107  0.0022  1.0000  -4.9187   0.0000   0.2300
   8.100   0.9855   0.01011   0.00592   0.0110  0.0022  1.0000  -5.0163   0.0000   0.2298
   8.200   0.9950   0.01030   0.00613   0.0113  0.0022  1.0000  -5.1150   0.0000   0.2295
   8.300   1.0045   0.01051   0.00636   0.0115  0.0022  1.0000  -5.2145   0.0000   0.2292
   8.400   1.0138   0.01073   0.00660   0.0118  0.0022  1.0000  -5.3126   0.0000   0.2289
   8.500   1.0229   0.01096   0.00686   0.0121  0.0023  1.0000  -5.4085   0.0000   0.2286
   8.600   1.0319   0.01121   0.00714   0.0124  0.0023  1.0000  -5.5026   0.0000   0.2283
   8.700   1.0408   0.01147   0.00743   0.0128  0.0023  1.0000  -5.5947   0.0000   0.2280
   8.800   1.0494   0.01176   0.00774   0.0131  0.0023  1.0000  -5.6845   0.0000   0.2276
   8.900   1.0578   0.01206   0.00808   0.0135  0.0024  1.0000  -5.7717   0.0000   0.2272
   9.000   1.0659   0.01239   0.00843   0.0139  0.0024  1.0000  -5.8560   0.0000   0.2268
   9.100   1.0738   0.01274   0.00881   0.0143  0.0024  1.0000  -5.9372   0.0000   0.2264
   9.200   1.0813   0.01311   0.00922   0.0148  0.0024  1.0000  -6.0149   0.0000   0.2260
   9.300   1.0889   0.01346   0.00959   0.0152  0.0025  1.0000  -6.1011   0.0000   0.2255
   9.400   1.0964   0.01379   0.00995   0.0157  0.0025  1.0000  -6.1937   0.0000   0.2251
   9.500   1.1038   0.01411   0.01029   0.0162  0.0025  1.0000  -6.2885   0.0000   0.2246
   9.600   1.1109   0.01444   0.01065   0.0167  0.0025  1.0000  -6.3827   0.0000   0.2241
   9.700   1.1178   0.01479   0.01102   0.0172  0.0025  1.0000  -6.4739   0.0000   0.2236
   9.800   1.1241   0.01517   0.01143   0.0178  0.0025  1.0000  -6.5575   0.0000   0.2230
   9.900   1.1295   0.01564   0.01192   0.0185  0.0025  1.0000  -6.6235   0.0000   0.2224
  10.000   1.1342   0.01617   0.01249   0.0192  0.0025  1.0000  -6.6772   0.0000   0.2217
  10.100   1.1382   0.01676   0.01312   0.0199  0.0026  1.0000  -6.7214   0.0000   0.2210
  10.200   1.1414   0.01745   0.01385   0.0207  0.0026  1.0000  -6.7489   0.0000   0.2202
  11.900   1.1272   0.03250   0.02947   0.0335  0.0029  1.0000  -7.0580   0.0000   0.2061
  12.000   1.1280   0.03344   0.03044   0.0333  0.0029  1.0000  -7.1102   0.0000   0.2062
  12.100   1.1286   0.03440   0.03143   0.0331  0.0029  1.0000  -7.1612   0.0000   0.2062
  12.400   1.1295   0.03738   0.03450   0.0325  0.0029  1.0000  -7.3052   0.0000   0.2062
  12.500   1.1293   0.03840   0.03556   0.0323  0.0029  1.0000  -7.3493   0.0000   0.2063
  12.600   1.1290   0.03946   0.03664   0.0320  0.0029  1.0000  -7.3920   0.0000   0.2063
  12.700   1.1285   0.04054   0.03776   0.0318  0.0029  1.0000  -7.4332   0.0000   0.2063
  12.800   1.1277   0.04166   0.03890   0.0315  0.0029  1.0000  -7.4723   0.0000   0.2064
  12.900   1.1268   0.04280   0.04008   0.0311  0.0029  1.0000  -7.5092   0.0000   0.2065
  13.000   1.1257   0.04397   0.04128   0.0308  0.0029  1.0000  -7.5449   0.0000   0.2066
  13.100   1.1243   0.04517   0.04251   0.0304  0.0029  1.0000  -7.5777   0.0000   0.2067
  13.200   1.1227   0.04638   0.04376   0.0300  0.0029  1.0000  -7.6081   0.0000   0.2068
  13.300   1.1209   0.04762   0.04503   0.0296  0.0029  1.0000  -7.6375   0.0000   0.2070
  13.400   1.1189   0.04892   0.04636   0.0292  0.0029  1.0000  -7.6635   0.0000   0.2072
  13.500   1.1167   0.05024   0.04771   0.0287  0.0029  1.0000  -7.6889   0.0000   0.2073
  13.600   1.1144   0.05160   0.04910   0.0282  0.0029  1.0000  -7.7116   0.0000   0.2076
  13.700   1.1118   0.05299   0.05053   0.0276  0.0029  1.0000  -7.7321   0.0000   0.2078
  13.800   1.1092   0.05439   0.05196   0.0271  0.0029  1.0000  -7.7516   0.0000   0.2081
  13.900   1.1061   0.05585   0.05345   0.0264  0.0029  1.0000  -7.7668   0.0000   0.2084
  14.000   1.1031   0.05731   0.05495   0.0258  0.0029  1.0000  -7.7826   0.0000   0.2087
  14.100   1.0997   0.05885   0.05652   0.0251  0.0029  1.0000  -7.7939   0.0000   0.2091
  14.200   1.0964   0.06039   0.05809   0.0244  0.0029  1.0000  -7.8058   0.0000   0.2094
  14.300   1.0928   0.06199   0.05973   0.0237  0.0029  1.0000  -7.8137   0.0000   0.2099
  14.400   1.0892   0.06360   0.06138   0.0229  0.0029  1.0000  -7.8212   0.0000   0.2103
  14.500   1.0853   0.06527   0.06308   0.0221  0.0029  1.0000  -7.8258   0.0000   0.2108
  14.600   1.0816   0.06699   0.06483   0.0213  0.0029  1.0000  -7.8304   0.0000   0.2113
  14.700   1.0778   0.06877   0.06664   0.0204  0.0029  1.0000  -7.8336   0.0000   0.2119
  14.800   1.0740   0.07059   0.06850   0.0194  0.0029  1.0000  -7.8349   0.0000   0.2125
  14.900   1.0701   0.07245   0.07040   0.0185  0.0029  1.0000  -7.8353   0.0000   0.2132
  15.000   1.0661   0.07437   0.07235   0.0174  0.0029  1.0000  -7.8330   0.0000   0.2139
  15.100   1.0620   0.07629   0.07430   0.0164  0.0029  1.0000  -7.8300   0.0000   0.2146
  15.200   1.0577   0.07828   0.07632   0.0153  0.0029  1.0000  -7.8238   0.0000   0.2154
  15.300   1.0536   0.08028   0.07836   0.0142  0.0029  1.0000  -7.8176   0.0000   0.2161
  15.400   1.0492   0.08236   0.08048   0.0131  0.0029  1.0000  -7.8082   0.0000   0.2170
  15.500   1.0449   0.08445   0.08260   0.0119  0.0029  1.0000  -7.7987   0.0000   0.2179
  15.600   1.0404   0.08660   0.08478   0.0107  0.0029  1.0000  -7.7860   0.0000   0.2188
  15.700   1.0360   0.08875   0.08697   0.0095  0.0029  1.0000  -7.7730   0.0000   0.2197
  15.800   1.0314   0.09096   0.08920   0.0083  0.0029  1.0000  -7.7568   0.0000   0.2207
  15.900   1.0268   0.09318   0.09146   0.0070  0.0029  1.0000  -7.7402   0.0000   0.2217
  16.000   1.0222   0.09545   0.09376   0.0057  0.0029  1.0000  -7.7211   0.0000   0.2228
  16.100   1.0176   0.09774   0.09609   0.0044  0.0029  1.0000  -7.7012   0.0000   0.2239
  16.200   1.0129   0.10007   0.09845   0.0031  0.0029  1.0000  -7.6791   0.0000   0.2251
  16.300   1.0083   0.10241   0.10082   0.0017  0.0029  1.0000  -7.6555   0.0000   0.2262
  16.400   1.0036   0.10477   0.10321   0.0003  0.0029  1.0000  -7.6300   0.0000   0.2274
  16.500   0.9988   0.10716   0.10563  -0.0011  0.0029  1.0000  -7.6028   0.0000   0.2287
  16.600   0.9941   0.10958   0.10808  -0.0025  0.0029  1.0000  -7.5737   0.0000   0.2300
  16.700   0.9895   0.11201   0.11055  -0.0040  0.0029  1.0000  -7.5432   0.0000   0.2314
  16.800   0.9847   0.11449   0.11306  -0.0055  0.0029  1.0000  -7.5103   0.0000   0.2328
  16.900   0.9801   0.11695   0.11556  -0.0070  0.0029  1.0000  -7.4762   0.0000   0.2342
  17.000   0.9753   0.11948   0.11811  -0.0086  0.0029  1.0000  -7.4384   0.0000   0.2357
  17.100   0.9706   0.12197   0.12064  -0.0101  0.0029  1.0000  -7.4008   0.0000   0.2372
  17.200   0.9657   0.12457   0.12326  -0.0117  0.0029  1.0000  -7.3574   0.0000   0.2388
  17.300   0.9612   0.12709   0.12581  -0.0133  0.0029  1.0000  -7.3164   0.0000   0.2403
  17.400   0.9563   0.12976   0.12851  -0.0150  0.0029  1.0000  -7.2670   0.0000   0.2421
  17.500   0.9518   0.13231   0.13109  -0.0166  0.0029  1.0000  -7.2220   0.0000   0.2437
  17.600   0.9468   0.13504   0.13386  -0.0184  0.0029  1.0000  -7.1657   0.0000   0.2456
  17.700   0.9422   0.13766   0.13651  -0.0200  0.0029  1.0000  -7.1136   0.0000   0.2473
  17.800   0.9371   0.14043   0.13931  -0.0218  0.0029  1.0000  -7.0518   0.0000   0.2493
  17.900   0.9323   0.14319   0.14209  -0.0236  0.0029  1.0000  -6.9889   0.0000   0.2512
  18.000   0.9275   0.14595   0.14488  -0.0254  0.0029  1.0000  -6.9238   0.0000   0.2532
  18.100   0.9223   0.14886   0.14782  -0.0272  0.0029  1.0000  -6.8481   0.0000   0.2553
  18.200   0.9175   0.15170   0.15069  -0.0291  0.0029  1.0000  -6.7733   0.0000   0.2574
  18.300   0.9124   0.15467   0.15368  -0.0310  0.0029  1.0000  -6.6890   0.0000   0.2597
  18.400   0.9069   0.15775   0.15680  -0.0330  0.0029  1.0000  -6.5938   0.0000   0.2620
  18.500   0.9016   0.16086   0.15993  -0.0350  0.0029  1.0000  -6.4932   0.0000   0.2644
  18.600   0.8962   0.16404   0.16315  -0.0370  0.0029  1.0000  -6.3838   0.0000   0.2669
  18.700   0.8904   0.16741   0.16654  -0.0391  0.0029  1.0000  -6.2569   0.0000   0.2696
  18.800   0.8841   0.17101   0.17017  -0.0413  0.0029  1.0000  -6.1076   0.0000   0.2725
  18.900   0.8770   0.17498   0.17417  -0.0437  0.0029  1.0000  -5.9213   0.0000   0.2758
  19.000   0.8681   0.17968   0.17890  -0.0465  0.0029  1.0000  -5.6617   0.0000   0.2797


